version 2
run canvas-0-20220516-11:59:52-7682
attr configname canvas
attr datetime 20220516-11:59:52
attr experiment canvas
attr inifile omnetpp.ini
attr iterationvars ""
attr iterationvarsf ""
attr measurement ""
attr network Scenario
attr processid 7682
attr repetition 0
attr replication #0
attr resultdir results
attr runnumber 0
attr seedset 0
param *.visualizer.*.obstacleLossVisualizer.displayIntersections true
param *.visualizer.*.obstacleLossVisualizer.displayFaceNormalVectors true
param *.visualizer.*.obstacleLossVisualizer.intersectionLineColor "\"yellow\""
param *.visualizer.*.mediumVisualizer.signalPropagationAnimationSpeed 500/3e8
param *.visualizer.*.mediumVisualizer.signalTransmissionAnimationSpeed 50000/3e8
param *.visualizer.*.mediumVisualizer.displaySignals true
param *.visualizer.canvasVisualizer.mediumVisualizer.displaySignalDepartures false
param *.visualizer.canvasVisualizer.mediumVisualizer.displaySignalArrivals false
param *.visualizer.*.physicalLinkVisualizer.displayLinks true
param *.visualizer.osgVisualizer.typename "\"\""
param *.node[*].numApps 1
param *.node[*].app[0].typename "\"org.car2x.veins.subprojects.veins_inet.VeinsInetSampleApplication\""
param *.node[*].app[0].interface "\"wlan0\""
param *.node[*].wlan[0].opMode "\"p\""
param *.node[*].wlan[0].radio.typename "\"Ieee80211DimensionalRadio\""
param *.node[*].wlan[0].radio.bandName "\"5.9 GHz\""
param *.node[*].wlan[0].radio.channelNumber 3
param *.node[*].wlan[0].radio.transmitter.power 20mW
param *.node[*].wlan[0].radio.bandwidth "10 MHz"
param *.node[*].wlan[*].radio.antenna.mobility.typename "\"AttachedMobility\""
param *.node[*].wlan[*].radio.antenna.mobility.mobilityModule "\"^.^.^.^.mobility\""
param *.node[*].wlan[*].radio.antenna.mobility.offsetX -2.5m
param *.node[*].wlan[*].radio.antenna.mobility.offsetZ 1.5m
param *.node[*].wlan[*].radio.antenna.mobility.constraintAreaMinX 0m
param *.node[*].wlan[*].radio.antenna.mobility.constraintAreaMaxX 0m
param *.node[*].wlan[*].radio.antenna.mobility.constraintAreaMinY 0m
param *.node[*].wlan[*].radio.antenna.mobility.constraintAreaMaxY 0m
param *.node[*].wlan[*].radio.antenna.mobility.constraintAreaMinZ 0m
param *.node[*].wlan[*].radio.antenna.mobility.constraintAreaMaxZ 0m
param *.node[*].ipv4.configurator.typename "\"HostAutoConfigurator\""
param *.node[*].ipv4.configurator.interfaces "\"wlan0\""
param *.node[*].ipv4.configurator.mcastGroups "\"224.0.0.1\""
param *.node[*].mobility.typename "\"VeinsInetMobility\""
param *.manager.updateInterval 0.1s
param *.manager.host "\"localhost\""
param *.manager.port 9999
param *.manager.autoShutdown true
param *.manager.launchConfig "xmldoc(\"FresnoState.launchd.xml\")"
param *.manager.moduleType "\"org.car2x.veins.subprojects.veins_inet.VeinsInetCar\""
param *.physicalEnvironment.config "xmldoc(\"obstacles.xml\")"
param *.radioMedium.obstacleLoss.typename "\"IdealObstacleLoss\""

vector 0 Scenario.node[0].wlan[0].radio radioMode:vector ETV
attr interpolationmode sample-hold
attr source radioModeChanged
attr title "Radio mode, vector"
vector 1 Scenario.node[0].wlan[0].radio radioChannel:vector ETV
attr interpolationmode sample-hold
attr source radioChannelChanged
attr title "Radio channel, vector"
vector 2 Scenario.node[0].wlan[0].radio receptionState:vector ETV
attr interpolationmode sample-hold
attr source receptionStateChanged
attr title "Radio reception state, vector"
vector 3 Scenario.node[0].wlan[0].mac.dcf.recoveryProcedure contentionWindowChanged:vector ETV
attr interpolationmode sample-hold
attr title "contention window, vector"
vector 4 Scenario.node[1].wlan[0].radio radioMode:vector ETV
attr interpolationmode sample-hold
attr source radioModeChanged
attr title "Radio mode, vector"
vector 5 Scenario.node[1].wlan[0].radio radioChannel:vector ETV
attr interpolationmode sample-hold
attr source radioChannelChanged
attr title "Radio channel, vector"
vector 6 Scenario.node[1].wlan[0].radio receptionState:vector ETV
attr interpolationmode sample-hold
attr source receptionStateChanged
attr title "Radio reception state, vector"
vector 7 Scenario.node[1].wlan[0].mac.dcf.recoveryProcedure contentionWindowChanged:vector ETV
attr interpolationmode sample-hold
attr title "contention window, vector"
vector 8 Scenario.node[2].wlan[0].radio radioMode:vector ETV
attr interpolationmode sample-hold
attr source radioModeChanged
attr title "Radio mode, vector"
vector 9 Scenario.node[2].wlan[0].radio radioChannel:vector ETV
attr interpolationmode sample-hold
attr source radioChannelChanged
attr title "Radio channel, vector"
vector 10 Scenario.node[2].wlan[0].radio receptionState:vector ETV
attr interpolationmode sample-hold
attr source receptionStateChanged
attr title "Radio reception state, vector"
vector 11 Scenario.node[2].wlan[0].mac.dcf.recoveryProcedure contentionWindowChanged:vector ETV
attr interpolationmode sample-hold
attr title "contention window, vector"
vector 12 Scenario.node[3].wlan[0].radio radioMode:vector ETV
attr interpolationmode sample-hold
attr source radioModeChanged
attr title "Radio mode, vector"
vector 13 Scenario.node[3].wlan[0].radio radioChannel:vector ETV
attr interpolationmode sample-hold
attr source radioChannelChanged
attr title "Radio channel, vector"
vector 14 Scenario.node[3].wlan[0].radio receptionState:vector ETV
attr interpolationmode sample-hold
attr source receptionStateChanged
attr title "Radio reception state, vector"
vector 15 Scenario.node[3].wlan[0].mac.dcf.recoveryProcedure contentionWindowChanged:vector ETV
attr interpolationmode sample-hold
attr title "contention window, vector"
vector 16 Scenario.node[4].wlan[0].radio radioMode:vector ETV
attr interpolationmode sample-hold
attr source radioModeChanged
attr title "Radio mode, vector"
vector 17 Scenario.node[4].wlan[0].radio radioChannel:vector ETV
attr interpolationmode sample-hold
attr source radioChannelChanged
attr title "Radio channel, vector"
vector 18 Scenario.node[4].wlan[0].radio receptionState:vector ETV
attr interpolationmode sample-hold
attr source receptionStateChanged
attr title "Radio reception state, vector"
vector 19 Scenario.node[4].wlan[0].mac.dcf.recoveryProcedure contentionWindowChanged:vector ETV
attr interpolationmode sample-hold
attr title "contention window, vector"
vector 20 Scenario.node[5].wlan[0].radio radioMode:vector ETV
attr interpolationmode sample-hold
attr source radioModeChanged
attr title "Radio mode, vector"
vector 21 Scenario.node[5].wlan[0].radio radioChannel:vector ETV
attr interpolationmode sample-hold
attr source radioChannelChanged
attr title "Radio channel, vector"
vector 22 Scenario.node[5].wlan[0].radio receptionState:vector ETV
attr interpolationmode sample-hold
attr source receptionStateChanged
attr title "Radio reception state, vector"
vector 23 Scenario.node[5].wlan[0].mac.dcf.recoveryProcedure contentionWindowChanged:vector ETV
attr interpolationmode sample-hold
attr title "contention window, vector"
vector 24 Scenario.node[6].wlan[0].radio radioMode:vector ETV
attr interpolationmode sample-hold
attr source radioModeChanged
attr title "Radio mode, vector"
vector 25 Scenario.node[6].wlan[0].radio radioChannel:vector ETV
attr interpolationmode sample-hold
attr source radioChannelChanged
attr title "Radio channel, vector"
vector 26 Scenario.node[6].wlan[0].radio receptionState:vector ETV
attr interpolationmode sample-hold
attr source receptionStateChanged
attr title "Radio reception state, vector"
vector 27 Scenario.node[6].wlan[0].mac.dcf.recoveryProcedure contentionWindowChanged:vector ETV
attr interpolationmode sample-hold
attr title "contention window, vector"
vector 28 Scenario.node[7].wlan[0].radio radioMode:vector ETV
attr interpolationmode sample-hold
attr source radioModeChanged
attr title "Radio mode, vector"
vector 29 Scenario.node[7].wlan[0].radio radioChannel:vector ETV
attr interpolationmode sample-hold
attr source radioChannelChanged
attr title "Radio channel, vector"
vector 30 Scenario.node[7].wlan[0].radio receptionState:vector ETV
attr interpolationmode sample-hold
attr source receptionStateChanged
attr title "Radio reception state, vector"
vector 31 Scenario.node[7].wlan[0].mac.dcf.recoveryProcedure contentionWindowChanged:vector ETV
attr interpolationmode sample-hold
attr title "contention window, vector"
vector 32 Scenario.node[8].wlan[0].radio radioMode:vector ETV
attr interpolationmode sample-hold
attr source radioModeChanged
attr title "Radio mode, vector"
vector 33 Scenario.node[8].wlan[0].radio radioChannel:vector ETV
attr interpolationmode sample-hold
attr source radioChannelChanged
attr title "Radio channel, vector"
vector 34 Scenario.node[8].wlan[0].radio receptionState:vector ETV
attr interpolationmode sample-hold
attr source receptionStateChanged
attr title "Radio reception state, vector"
vector 35 Scenario.node[8].wlan[0].mac.dcf.recoveryProcedure contentionWindowChanged:vector ETV
attr interpolationmode sample-hold
attr title "contention window, vector"
vector 36 Scenario.node[9].wlan[0].radio radioMode:vector ETV
attr interpolationmode sample-hold
attr source radioModeChanged
attr title "Radio mode, vector"
vector 37 Scenario.node[9].wlan[0].radio radioChannel:vector ETV
attr interpolationmode sample-hold
attr source radioChannelChanged
attr title "Radio channel, vector"
vector 38 Scenario.node[9].wlan[0].radio receptionState:vector ETV
attr interpolationmode sample-hold
attr source receptionStateChanged
attr title "Radio reception state, vector"
vector 39 Scenario.node[9].wlan[0].mac.dcf.recoveryProcedure contentionWindowChanged:vector ETV
attr interpolationmode sample-hold
attr title "contention window, vector"
vector 40 Scenario.node[10].wlan[0].radio radioMode:vector ETV
attr interpolationmode sample-hold
attr source radioModeChanged
attr title "Radio mode, vector"
vector 41 Scenario.node[10].wlan[0].radio radioChannel:vector ETV
attr interpolationmode sample-hold
attr source radioChannelChanged
attr title "Radio channel, vector"
vector 42 Scenario.node[10].wlan[0].radio receptionState:vector ETV
attr interpolationmode sample-hold
attr source receptionStateChanged
attr title "Radio reception state, vector"
vector 43 Scenario.node[10].wlan[0].mac.dcf.recoveryProcedure contentionWindowChanged:vector ETV
attr interpolationmode sample-hold
attr title "contention window, vector"
vector 44 Scenario.node[11].wlan[0].radio radioMode:vector ETV
attr interpolationmode sample-hold
attr source radioModeChanged
attr title "Radio mode, vector"
vector 45 Scenario.node[11].wlan[0].radio radioChannel:vector ETV
attr interpolationmode sample-hold
attr source radioChannelChanged
attr title "Radio channel, vector"
vector 46 Scenario.node[11].wlan[0].radio receptionState:vector ETV
attr interpolationmode sample-hold
attr source receptionStateChanged
attr title "Radio reception state, vector"
vector 47 Scenario.node[11].wlan[0].mac.dcf.recoveryProcedure contentionWindowChanged:vector ETV
attr interpolationmode sample-hold
attr title "contention window, vector"
vector 48 Scenario.node[12].wlan[0].radio radioMode:vector ETV
attr interpolationmode sample-hold
attr source radioModeChanged
attr title "Radio mode, vector"
vector 49 Scenario.node[12].wlan[0].radio radioChannel:vector ETV
attr interpolationmode sample-hold
attr source radioChannelChanged
attr title "Radio channel, vector"
vector 50 Scenario.node[12].wlan[0].radio receptionState:vector ETV
attr interpolationmode sample-hold
attr source receptionStateChanged
attr title "Radio reception state, vector"
vector 51 Scenario.node[12].wlan[0].mac.dcf.recoveryProcedure contentionWindowChanged:vector ETV
attr interpolationmode sample-hold
attr title "contention window, vector"
vector 52 Scenario.node[13].wlan[0].radio radioMode:vector ETV
attr interpolationmode sample-hold
attr source radioModeChanged
attr title "Radio mode, vector"
vector 53 Scenario.node[13].wlan[0].radio radioChannel:vector ETV
attr interpolationmode sample-hold
attr source radioChannelChanged
attr title "Radio channel, vector"
vector 54 Scenario.node[13].wlan[0].radio receptionState:vector ETV
attr interpolationmode sample-hold
attr source receptionStateChanged
attr title "Radio reception state, vector"
vector 55 Scenario.node[13].wlan[0].mac.dcf.recoveryProcedure contentionWindowChanged:vector ETV
attr interpolationmode sample-hold
attr title "contention window, vector"
vector 56 Scenario.node[14].wlan[0].radio radioMode:vector ETV
attr interpolationmode sample-hold
attr source radioModeChanged
attr title "Radio mode, vector"
vector 57 Scenario.node[14].wlan[0].radio radioChannel:vector ETV
attr interpolationmode sample-hold
attr source radioChannelChanged
attr title "Radio channel, vector"
vector 58 Scenario.node[14].wlan[0].radio receptionState:vector ETV
attr interpolationmode sample-hold
attr source receptionStateChanged
attr title "Radio reception state, vector"
vector 59 Scenario.node[14].wlan[0].mac.dcf.recoveryProcedure contentionWindowChanged:vector ETV
attr interpolationmode sample-hold
attr title "contention window, vector"
vector 60 Scenario.node[15].wlan[0].radio radioMode:vector ETV
attr interpolationmode sample-hold
attr source radioModeChanged
attr title "Radio mode, vector"
vector 61 Scenario.node[15].wlan[0].radio radioChannel:vector ETV
attr interpolationmode sample-hold
attr source radioChannelChanged
attr title "Radio channel, vector"
vector 62 Scenario.node[15].wlan[0].radio receptionState:vector ETV
attr interpolationmode sample-hold
attr source receptionStateChanged
attr title "Radio reception state, vector"
vector 63 Scenario.node[15].wlan[0].mac.dcf.recoveryProcedure contentionWindowChanged:vector ETV
attr interpolationmode sample-hold
attr title "contention window, vector"
vector 64 Scenario.node[16].wlan[0].radio radioMode:vector ETV
attr interpolationmode sample-hold
attr source radioModeChanged
attr title "Radio mode, vector"
vector 65 Scenario.node[16].wlan[0].radio radioChannel:vector ETV
attr interpolationmode sample-hold
attr source radioChannelChanged
attr title "Radio channel, vector"
vector 66 Scenario.node[16].wlan[0].radio receptionState:vector ETV
attr interpolationmode sample-hold
attr source receptionStateChanged
attr title "Radio reception state, vector"
vector 67 Scenario.node[16].wlan[0].mac.dcf.recoveryProcedure contentionWindowChanged:vector ETV
attr interpolationmode sample-hold
attr title "contention window, vector"
vector 68 Scenario.node[17].wlan[0].radio radioMode:vector ETV
attr interpolationmode sample-hold
attr source radioModeChanged
attr title "Radio mode, vector"
vector 69 Scenario.node[17].wlan[0].radio radioChannel:vector ETV
attr interpolationmode sample-hold
attr source radioChannelChanged
attr title "Radio channel, vector"
vector 70 Scenario.node[17].wlan[0].radio receptionState:vector ETV
attr interpolationmode sample-hold
attr source receptionStateChanged
attr title "Radio reception state, vector"
vector 71 Scenario.node[17].wlan[0].mac.dcf.recoveryProcedure contentionWindowChanged:vector ETV
attr interpolationmode sample-hold
attr title "contention window, vector"
vector 72 Scenario.node[0].app[0] packetSent:vector(packetBytes) ETV
attr interpolationmode none
attr source packetSent
attr title "packets sent, vector(packetBytes)"
vector 73 Scenario.node[0].udp packetSent:vector(packetBytes) ETV
attr interpolationmode none
attr source packetSent
attr title "packets sent, vector(packetBytes)"
vector 74 Scenario.node[0].lo[0].lo rcvdPkFromHl:vector(packetBytes) ETV
attr interpolationmode none
attr source packetReceivedFromUpper
attr title "packets received from higher layer, vector(packetBytes)"
vector 75 Scenario.node[0].lo[0].lo passedUpPk:vector(packetBytes) ETV
attr interpolationmode none
attr source packetSentToUpper
attr title "packets passed to higher layer, vector(packetBytes)"
vector 76 Scenario.node[0].wlan[0].mac packetReceivedFromUpper:vector(packetBytes) ETV
attr interpolationmode none
attr title "packets received from upper layer, vector(packetBytes)"
vector 77 Scenario.node[0].wlan[0].mac.dcf.channelAccess.pendingQueue packetPushed:vector(packetBytes) ETV
attr interpolationmode none
attr title "packet pushed, vector(packetBytes)"
vector 78 Scenario.node[0].wlan[0].mac.dcf.channelAccess.pendingQueue queueLength:vector ETV
attr interpolationmode sample-hold
attr source "count(packetPushed) - count(packetPopped) - count(packetRemoved) - count(packetDropped)"
attr title "queue length, vector"
vector 79 Scenario.node[0].wlan[0].mac.dcf.channelAccess.contention backoffPeriodGenerated:vector ETV
attr interpolationmode none
attr title "backoff periods, vector"
vector 80 Scenario.node[0].wlan[0].mac.dcf.channelAccess.contention backoffActive:vector ETV
attr interpolationmode sample-hold
attr source count(backoffStarted)-count(backoffStopped)
attr title "backoff active, vector"
vector 81 Scenario.node[0].udp packetReceived:vector(packetBytes) ETV
attr interpolationmode none
attr source packetReceived
attr title "packets received, vector(packetBytes)"
vector 82 Scenario.node[0].udp passedUpPk:vector(count) ETV
attr interpolationmode none
attr source packetSentToUpper
attr title "packets passed up, vector(count)"
vector 83 Scenario.node[0].app[0] packetReceived:vector(packetBytes) ETV
attr interpolationmode none
attr source packetReceived
attr title "packets received, vector(packetBytes)"
vector 84 Scenario.node[0].app[0] throughput:vector ETV
attr source throughput(packetReceived)
attr title "throughput, vector"
attr unit bps
vector 85 Scenario.node[0].app[0] rcvdPkLifetime:vector ETV
attr interpolationmode none
attr source dataAge(packetReceived)
attr title "received packet lifetime, vector"
attr unit s
vector 86 Scenario.node[0].wlan[0].mac.dcf.channelAccess.pendingQueue packetPopped:vector(packetBytes) ETV
attr interpolationmode none
attr title "packet popped, vector(packetBytes)"
vector 87 Scenario.node[0].wlan[0].mac.dcf.channelAccess.pendingQueue queueingTime:vector ETV
attr interpolationmode none
attr source queueingTime(packetPopped)
attr title "queueing times, vector"
attr unit s
vector 88 Scenario.node[0].wlan[0].mac.dcf.channelAccess.inProgressFrames queueLength:vector ETV
attr interpolationmode sample-hold
attr source "count(packetEnqueued) - count(packetDequeued)"
attr title "queue length, vector"
vector 89 Scenario.node[0].wlan[0].mac.dcf datarateSelected:vector ETV
attr interpolationmode none
attr title "datarates selected, vector"
vector 90 Scenario.node[0].wlan[0].mac packetSentToLower:vector(packetBytes) ETV
attr interpolationmode none
attr title "packets sent to lower layer, vector(packetBytes)"
vector 91 Scenario.node[0].wlan[0].mac.dcf frameSequenceActive:vector ETV
attr interpolationmode sample-hold
attr source count(frameSequenceStarted)-count(frameSequenceFinished)
attr title "frame sequence active, vector"
vector 92 Scenario.node[0].wlan[0].radio transmissionState:vector ETV
attr interpolationmode sample-hold
attr source transmissionStateChanged
attr title "Radio transmission state, vector"
vector 93 Scenario.node[0].wlan[0].mac.dcf packetSentToPeer:vector(packetBytes) ETV
attr interpolationmode none
attr title "packets sent, vector(packetBytes)"
vector 94 Scenario.node[0].wlan[0].mac.dcf packetSentToPeerMulticast:vector(packetBytes) ETV
attr interpolationmode none
attr source ieee80211Multicast(packetSentToPeer)
attr title "packets sent: multicast, vector(packetBytes)"
vector 95 Scenario.node[0].wlan[0].mac.dcf packetSentToPeerWithoutRetry:vector(packetBytes) ETV
attr interpolationmode none
attr source ieee80211NotRetry(packetSentToPeer)
attr title "packets sent: without retry, vector(packetBytes)"
vector 96 Scenario.node[0].wlan[0].mac.dcf.channelAccess.inProgressFrames queueingTime:vector ETV
attr interpolationmode none
attr source queueingTime(packetDequeued)
attr title "queueing times, vector"
vector 97 Scenario.node[14].wlan[0].mac packetReceivedFromLower:vector(packetBytes) ETV
attr interpolationmode none
attr title "packets received from lower layer, vector(packetBytes)"
vector 98 Scenario.node[14].wlan[0].mac.dcf packetReceivedFromPeer:vector(packetBytes) ETV
attr interpolationmode none
attr title "packets received, vector(packetBytes)"
vector 99 Scenario.node[14].wlan[0].mac.dcf packetReceivedFromPeerMulticast:vector(packetBytes) ETV
attr interpolationmode none
attr source ieee80211Multicast(packetReceivedFromPeer)
attr title "packets received: multicast, vector(packetBytes)"
vector 100 Scenario.node[14].wlan[0].mac.dcf packetReceivedFromPeerWithoutRetry:vector(packetBytes) ETV
attr interpolationmode none
attr source ieee80211NotRetry(packetReceivedFromPeer)
attr title "packets received: without retry, vector(packetBytes)"
vector 101 Scenario.node[14].wlan[0].mac packetSentToUpper:vector(packetBytes) ETV
attr interpolationmode none
attr title "packets sent to upper layer, vector(packetBytes)"
vector 102 Scenario.node[14].udp packetReceived:vector(packetBytes) ETV
attr interpolationmode none
attr source packetReceived
attr title "packets received, vector(packetBytes)"
vector 103 Scenario.node[14].udp passedUpPk:vector(count) ETV
attr interpolationmode none
attr source packetSentToUpper
attr title "packets passed up, vector(count)"
vector 104 Scenario.node[14].app[0] packetReceived:vector(packetBytes) ETV
attr interpolationmode none
attr source packetReceived
attr title "packets received, vector(packetBytes)"
vector 105 Scenario.node[14].app[0] throughput:vector ETV
attr source throughput(packetReceived)
attr title "throughput, vector"
attr unit bps
vector 106 Scenario.node[14].app[0] rcvdPkLifetime:vector ETV
attr interpolationmode none
attr source dataAge(packetReceived)
attr title "received packet lifetime, vector"
attr unit s
vector 107 Scenario.node[14].app[0] packetSent:vector(packetBytes) ETV
attr interpolationmode none
attr source packetSent
attr title "packets sent, vector(packetBytes)"
vector 108 Scenario.node[14].udp packetSent:vector(packetBytes) ETV
attr interpolationmode none
attr source packetSent
attr title "packets sent, vector(packetBytes)"
vector 109 Scenario.node[14].lo[0].lo rcvdPkFromHl:vector(packetBytes) ETV
attr interpolationmode none
attr source packetReceivedFromUpper
attr title "packets received from higher layer, vector(packetBytes)"
vector 110 Scenario.node[14].lo[0].lo passedUpPk:vector(packetBytes) ETV
attr interpolationmode none
attr source packetSentToUpper
attr title "packets passed to higher layer, vector(packetBytes)"
vector 111 Scenario.node[14].wlan[0].mac packetReceivedFromUpper:vector(packetBytes) ETV
attr interpolationmode none
attr title "packets received from upper layer, vector(packetBytes)"
vector 112 Scenario.node[14].wlan[0].mac.dcf.channelAccess.pendingQueue packetPushed:vector(packetBytes) ETV
attr interpolationmode none
attr title "packet pushed, vector(packetBytes)"
vector 113 Scenario.node[14].wlan[0].mac.dcf.channelAccess.pendingQueue queueLength:vector ETV
attr interpolationmode sample-hold
attr source "count(packetPushed) - count(packetPopped) - count(packetRemoved) - count(packetDropped)"
attr title "queue length, vector"
vector 114 Scenario.node[14].wlan[0].mac.dcf.channelAccess.contention backoffPeriodGenerated:vector ETV
attr interpolationmode none
attr title "backoff periods, vector"
vector 115 Scenario.node[14].wlan[0].mac.dcf.channelAccess.contention backoffActive:vector ETV
attr interpolationmode sample-hold
attr source count(backoffStarted)-count(backoffStopped)
attr title "backoff active, vector"
vector 116 Scenario.node[7].wlan[0].mac packetReceivedFromLower:vector(packetBytes) ETV
attr interpolationmode none
attr title "packets received from lower layer, vector(packetBytes)"
vector 117 Scenario.node[7].wlan[0].mac.dcf packetReceivedFromPeer:vector(packetBytes) ETV
attr interpolationmode none
attr title "packets received, vector(packetBytes)"
vector 118 Scenario.node[7].wlan[0].mac.dcf packetReceivedFromPeerMulticast:vector(packetBytes) ETV
attr interpolationmode none
attr source ieee80211Multicast(packetReceivedFromPeer)
attr title "packets received: multicast, vector(packetBytes)"
vector 119 Scenario.node[7].wlan[0].mac.dcf packetReceivedFromPeerWithoutRetry:vector(packetBytes) ETV
attr interpolationmode none
attr source ieee80211NotRetry(packetReceivedFromPeer)
attr title "packets received: without retry, vector(packetBytes)"
vector 120 Scenario.node[7].wlan[0].mac packetSentToUpper:vector(packetBytes) ETV
attr interpolationmode none
attr title "packets sent to upper layer, vector(packetBytes)"
vector 121 Scenario.node[7].udp packetReceived:vector(packetBytes) ETV
attr interpolationmode none
attr source packetReceived
attr title "packets received, vector(packetBytes)"
vector 122 Scenario.node[7].udp passedUpPk:vector(count) ETV
attr interpolationmode none
attr source packetSentToUpper
attr title "packets passed up, vector(count)"
vector 123 Scenario.node[7].app[0] packetReceived:vector(packetBytes) ETV
attr interpolationmode none
attr source packetReceived
attr title "packets received, vector(packetBytes)"
vector 124 Scenario.node[7].app[0] throughput:vector ETV
attr source throughput(packetReceived)
attr title "throughput, vector"
attr unit bps
vector 125 Scenario.node[7].app[0] rcvdPkLifetime:vector ETV
attr interpolationmode none
attr source dataAge(packetReceived)
attr title "received packet lifetime, vector"
attr unit s
vector 126 Scenario.node[7].app[0] packetSent:vector(packetBytes) ETV
attr interpolationmode none
attr source packetSent
attr title "packets sent, vector(packetBytes)"
vector 127 Scenario.node[7].udp packetSent:vector(packetBytes) ETV
attr interpolationmode none
attr source packetSent
attr title "packets sent, vector(packetBytes)"
vector 128 Scenario.node[7].lo[0].lo rcvdPkFromHl:vector(packetBytes) ETV
attr interpolationmode none
attr source packetReceivedFromUpper
attr title "packets received from higher layer, vector(packetBytes)"
vector 129 Scenario.node[7].lo[0].lo passedUpPk:vector(packetBytes) ETV
attr interpolationmode none
attr source packetSentToUpper
attr title "packets passed to higher layer, vector(packetBytes)"
vector 130 Scenario.node[7].wlan[0].mac packetReceivedFromUpper:vector(packetBytes) ETV
attr interpolationmode none
attr title "packets received from upper layer, vector(packetBytes)"
vector 131 Scenario.node[7].wlan[0].mac.dcf.channelAccess.pendingQueue packetPushed:vector(packetBytes) ETV
attr interpolationmode none
attr title "packet pushed, vector(packetBytes)"
vector 132 Scenario.node[7].wlan[0].mac.dcf.channelAccess.pendingQueue queueLength:vector ETV
attr interpolationmode sample-hold
attr source "count(packetPushed) - count(packetPopped) - count(packetRemoved) - count(packetDropped)"
attr title "queue length, vector"
vector 133 Scenario.node[7].wlan[0].mac.dcf.channelAccess.contention backoffPeriodGenerated:vector ETV
attr interpolationmode none
attr title "backoff periods, vector"
vector 134 Scenario.node[7].wlan[0].mac.dcf.channelAccess.contention backoffActive:vector ETV
attr interpolationmode sample-hold
attr source count(backoffStarted)-count(backoffStopped)
attr title "backoff active, vector"
vector 135 Scenario.node[7].wlan[0].mac.dcf.channelAccess.pendingQueue packetPopped:vector(packetBytes) ETV
attr interpolationmode none
attr title "packet popped, vector(packetBytes)"
vector 136 Scenario.node[7].wlan[0].mac.dcf.channelAccess.pendingQueue queueingTime:vector ETV
attr interpolationmode none
attr source queueingTime(packetPopped)
attr title "queueing times, vector"
attr unit s
vector 137 Scenario.node[7].wlan[0].mac.dcf.channelAccess.inProgressFrames queueLength:vector ETV
attr interpolationmode sample-hold
attr source "count(packetEnqueued) - count(packetDequeued)"
attr title "queue length, vector"
vector 138 Scenario.node[7].wlan[0].mac.dcf datarateSelected:vector ETV
attr interpolationmode none
attr title "datarates selected, vector"
vector 139 Scenario.node[7].wlan[0].mac packetSentToLower:vector(packetBytes) ETV
attr interpolationmode none
attr title "packets sent to lower layer, vector(packetBytes)"
vector 140 Scenario.node[7].wlan[0].mac.dcf frameSequenceActive:vector ETV
attr interpolationmode sample-hold
attr source count(frameSequenceStarted)-count(frameSequenceFinished)
attr title "frame sequence active, vector"
vector 141 Scenario.node[7].wlan[0].radio transmissionState:vector ETV
attr interpolationmode sample-hold
attr source transmissionStateChanged
attr title "Radio transmission state, vector"
vector 142 Scenario.node[7].wlan[0].mac.dcf packetSentToPeer:vector(packetBytes) ETV
attr interpolationmode none
attr title "packets sent, vector(packetBytes)"
vector 143 Scenario.node[7].wlan[0].mac.dcf packetSentToPeerMulticast:vector(packetBytes) ETV
attr interpolationmode none
attr source ieee80211Multicast(packetSentToPeer)
attr title "packets sent: multicast, vector(packetBytes)"
vector 144 Scenario.node[7].wlan[0].mac.dcf packetSentToPeerWithoutRetry:vector(packetBytes) ETV
attr interpolationmode none
attr source ieee80211NotRetry(packetSentToPeer)
attr title "packets sent: without retry, vector(packetBytes)"
vector 145 Scenario.node[7].wlan[0].mac.dcf.channelAccess.inProgressFrames queueingTime:vector ETV
attr interpolationmode none
attr source queueingTime(packetDequeued)
attr title "queueing times, vector"
vector 146 Scenario.node[0].wlan[0].mac packetReceivedFromLower:vector(packetBytes) ETV
attr interpolationmode none
attr title "packets received from lower layer, vector(packetBytes)"
vector 147 Scenario.node[0].wlan[0].mac.dcf packetReceivedFromPeer:vector(packetBytes) ETV
attr interpolationmode none
attr title "packets received, vector(packetBytes)"
vector 148 Scenario.node[0].wlan[0].mac.dcf packetReceivedFromPeerMulticast:vector(packetBytes) ETV
attr interpolationmode none
attr source ieee80211Multicast(packetReceivedFromPeer)
attr title "packets received: multicast, vector(packetBytes)"
vector 149 Scenario.node[0].wlan[0].mac.dcf packetReceivedFromPeerWithoutRetry:vector(packetBytes) ETV
attr interpolationmode none
attr source ieee80211NotRetry(packetReceivedFromPeer)
attr title "packets received: without retry, vector(packetBytes)"
vector 150 Scenario.node[0].wlan[0].mac packetSentToUpper:vector(packetBytes) ETV
attr interpolationmode none
attr title "packets sent to upper layer, vector(packetBytes)"
vector 151 Scenario.node[14].wlan[0].mac.dcf.channelAccess.pendingQueue packetPopped:vector(packetBytes) ETV
attr interpolationmode none
attr title "packet popped, vector(packetBytes)"
vector 152 Scenario.node[14].wlan[0].mac.dcf.channelAccess.pendingQueue queueingTime:vector ETV
attr interpolationmode none
attr source queueingTime(packetPopped)
attr title "queueing times, vector"
attr unit s
vector 153 Scenario.node[14].wlan[0].mac.dcf.channelAccess.inProgressFrames queueLength:vector ETV
attr interpolationmode sample-hold
attr source "count(packetEnqueued) - count(packetDequeued)"
attr title "queue length, vector"
vector 154 Scenario.node[14].wlan[0].mac.dcf datarateSelected:vector ETV
attr interpolationmode none
attr title "datarates selected, vector"
vector 155 Scenario.node[14].wlan[0].mac packetSentToLower:vector(packetBytes) ETV
attr interpolationmode none
attr title "packets sent to lower layer, vector(packetBytes)"
vector 156 Scenario.node[14].wlan[0].mac.dcf frameSequenceActive:vector ETV
attr interpolationmode sample-hold
attr source count(frameSequenceStarted)-count(frameSequenceFinished)
attr title "frame sequence active, vector"
vector 157 Scenario.node[14].wlan[0].radio transmissionState:vector ETV
attr interpolationmode sample-hold
attr source transmissionStateChanged
attr title "Radio transmission state, vector"
vector 158 Scenario.node[14].wlan[0].mac.dcf packetSentToPeer:vector(packetBytes) ETV
attr interpolationmode none
attr title "packets sent, vector(packetBytes)"
vector 159 Scenario.node[14].wlan[0].mac.dcf packetSentToPeerMulticast:vector(packetBytes) ETV
attr interpolationmode none
attr source ieee80211Multicast(packetSentToPeer)
attr title "packets sent: multicast, vector(packetBytes)"
vector 160 Scenario.node[14].wlan[0].mac.dcf packetSentToPeerWithoutRetry:vector(packetBytes) ETV
attr interpolationmode none
attr source ieee80211NotRetry(packetSentToPeer)
attr title "packets sent: without retry, vector(packetBytes)"
vector 161 Scenario.node[14].wlan[0].mac.dcf.channelAccess.inProgressFrames queueingTime:vector ETV
attr interpolationmode none
attr source queueingTime(packetDequeued)
attr title "queueing times, vector"
vector 162 Scenario.node[18].wlan[0].radio radioMode:vector ETV
attr interpolationmode sample-hold
attr source radioModeChanged
attr title "Radio mode, vector"
vector 163 Scenario.node[18].wlan[0].radio radioChannel:vector ETV
attr interpolationmode sample-hold
attr source radioChannelChanged
attr title "Radio channel, vector"
vector 164 Scenario.node[18].wlan[0].radio receptionState:vector ETV
attr interpolationmode sample-hold
attr source receptionStateChanged
attr title "Radio reception state, vector"
vector 165 Scenario.node[18].wlan[0].mac.dcf.recoveryProcedure contentionWindowChanged:vector ETV
attr interpolationmode sample-hold
attr title "contention window, vector"
vector 166 Scenario.node[19].wlan[0].radio radioMode:vector ETV
attr interpolationmode sample-hold
attr source radioModeChanged
attr title "Radio mode, vector"
vector 167 Scenario.node[19].wlan[0].radio radioChannel:vector ETV
attr interpolationmode sample-hold
attr source radioChannelChanged
attr title "Radio channel, vector"
vector 168 Scenario.node[19].wlan[0].radio receptionState:vector ETV
attr interpolationmode sample-hold
attr source receptionStateChanged
attr title "Radio reception state, vector"
vector 169 Scenario.node[19].wlan[0].mac.dcf.recoveryProcedure contentionWindowChanged:vector ETV
attr interpolationmode sample-hold
attr title "contention window, vector"
vector 170 Scenario.node[20].wlan[0].radio radioMode:vector ETV
attr interpolationmode sample-hold
attr source radioModeChanged
attr title "Radio mode, vector"
vector 171 Scenario.node[20].wlan[0].radio radioChannel:vector ETV
attr interpolationmode sample-hold
attr source radioChannelChanged
attr title "Radio channel, vector"
vector 172 Scenario.node[20].wlan[0].radio receptionState:vector ETV
attr interpolationmode sample-hold
attr source receptionStateChanged
attr title "Radio reception state, vector"
vector 173 Scenario.node[20].wlan[0].mac.dcf.recoveryProcedure contentionWindowChanged:vector ETV
attr interpolationmode sample-hold
attr title "contention window, vector"
vector 174 Scenario.node[21].wlan[0].radio radioMode:vector ETV
attr interpolationmode sample-hold
attr source radioModeChanged
attr title "Radio mode, vector"
vector 175 Scenario.node[21].wlan[0].radio radioChannel:vector ETV
attr interpolationmode sample-hold
attr source radioChannelChanged
attr title "Radio channel, vector"
vector 176 Scenario.node[21].wlan[0].radio receptionState:vector ETV
attr interpolationmode sample-hold
attr source receptionStateChanged
attr title "Radio reception state, vector"
vector 177 Scenario.node[21].wlan[0].mac.dcf.recoveryProcedure contentionWindowChanged:vector ETV
attr interpolationmode sample-hold
attr title "contention window, vector"
vector 178 Scenario.node[22].wlan[0].radio radioMode:vector ETV
attr interpolationmode sample-hold
attr source radioModeChanged
attr title "Radio mode, vector"
vector 179 Scenario.node[22].wlan[0].radio radioChannel:vector ETV
attr interpolationmode sample-hold
attr source radioChannelChanged
attr title "Radio channel, vector"
vector 180 Scenario.node[22].wlan[0].radio receptionState:vector ETV
attr interpolationmode sample-hold
attr source receptionStateChanged
attr title "Radio reception state, vector"
vector 181 Scenario.node[22].wlan[0].mac.dcf.recoveryProcedure contentionWindowChanged:vector ETV
attr interpolationmode sample-hold
attr title "contention window, vector"
vector 182 Scenario.node[23].wlan[0].radio radioMode:vector ETV
attr interpolationmode sample-hold
attr source radioModeChanged
attr title "Radio mode, vector"
vector 183 Scenario.node[23].wlan[0].radio radioChannel:vector ETV
attr interpolationmode sample-hold
attr source radioChannelChanged
attr title "Radio channel, vector"
vector 184 Scenario.node[23].wlan[0].radio receptionState:vector ETV
attr interpolationmode sample-hold
attr source receptionStateChanged
attr title "Radio reception state, vector"
vector 185 Scenario.node[23].wlan[0].mac.dcf.recoveryProcedure contentionWindowChanged:vector ETV
attr interpolationmode sample-hold
attr title "contention window, vector"
vector 186 Scenario.node[24].wlan[0].radio radioMode:vector ETV
attr interpolationmode sample-hold
attr source radioModeChanged
attr title "Radio mode, vector"
vector 187 Scenario.node[24].wlan[0].radio radioChannel:vector ETV
attr interpolationmode sample-hold
attr source radioChannelChanged
attr title "Radio channel, vector"
vector 188 Scenario.node[24].wlan[0].radio receptionState:vector ETV
attr interpolationmode sample-hold
attr source receptionStateChanged
attr title "Radio reception state, vector"
vector 189 Scenario.node[24].wlan[0].mac.dcf.recoveryProcedure contentionWindowChanged:vector ETV
attr interpolationmode sample-hold
attr title "contention window, vector"
vector 190 Scenario.node[25].wlan[0].radio radioMode:vector ETV
attr interpolationmode sample-hold
attr source radioModeChanged
attr title "Radio mode, vector"
vector 191 Scenario.node[25].wlan[0].radio radioChannel:vector ETV
attr interpolationmode sample-hold
attr source radioChannelChanged
attr title "Radio channel, vector"
vector 192 Scenario.node[25].wlan[0].radio receptionState:vector ETV
attr interpolationmode sample-hold
attr source receptionStateChanged
attr title "Radio reception state, vector"
vector 193 Scenario.node[25].wlan[0].mac.dcf.recoveryProcedure contentionWindowChanged:vector ETV
attr interpolationmode sample-hold
attr title "contention window, vector"
vector 194 Scenario.node[26].wlan[0].radio radioMode:vector ETV
attr interpolationmode sample-hold
attr source radioModeChanged
attr title "Radio mode, vector"
vector 195 Scenario.node[26].wlan[0].radio radioChannel:vector ETV
attr interpolationmode sample-hold
attr source radioChannelChanged
attr title "Radio channel, vector"
vector 196 Scenario.node[26].wlan[0].radio receptionState:vector ETV
attr interpolationmode sample-hold
attr source receptionStateChanged
attr title "Radio reception state, vector"
vector 197 Scenario.node[26].wlan[0].mac.dcf.recoveryProcedure contentionWindowChanged:vector ETV
attr interpolationmode sample-hold
attr title "contention window, vector"
vector 198 Scenario.node[27].wlan[0].radio radioMode:vector ETV
attr interpolationmode sample-hold
attr source radioModeChanged
attr title "Radio mode, vector"
vector 199 Scenario.node[27].wlan[0].radio radioChannel:vector ETV
attr interpolationmode sample-hold
attr source radioChannelChanged
attr title "Radio channel, vector"
vector 200 Scenario.node[27].wlan[0].radio receptionState:vector ETV
attr interpolationmode sample-hold
attr source receptionStateChanged
attr title "Radio reception state, vector"
vector 201 Scenario.node[27].wlan[0].mac.dcf.recoveryProcedure contentionWindowChanged:vector ETV
attr interpolationmode sample-hold
attr title "contention window, vector"
vector 202 Scenario.node[28].wlan[0].radio radioMode:vector ETV
attr interpolationmode sample-hold
attr source radioModeChanged
attr title "Radio mode, vector"
vector 203 Scenario.node[28].wlan[0].radio radioChannel:vector ETV
attr interpolationmode sample-hold
attr source radioChannelChanged
attr title "Radio channel, vector"
vector 204 Scenario.node[28].wlan[0].radio receptionState:vector ETV
attr interpolationmode sample-hold
attr source receptionStateChanged
attr title "Radio reception state, vector"
vector 205 Scenario.node[28].wlan[0].mac.dcf.recoveryProcedure contentionWindowChanged:vector ETV
attr interpolationmode sample-hold
attr title "contention window, vector"
vector 206 Scenario.node[29].wlan[0].radio radioMode:vector ETV
attr interpolationmode sample-hold
attr source radioModeChanged
attr title "Radio mode, vector"
vector 207 Scenario.node[29].wlan[0].radio radioChannel:vector ETV
attr interpolationmode sample-hold
attr source radioChannelChanged
attr title "Radio channel, vector"
vector 208 Scenario.node[29].wlan[0].radio receptionState:vector ETV
attr interpolationmode sample-hold
attr source receptionStateChanged
attr title "Radio reception state, vector"
vector 209 Scenario.node[29].wlan[0].mac.dcf.recoveryProcedure contentionWindowChanged:vector ETV
attr interpolationmode sample-hold
attr title "contention window, vector"
vector 210 Scenario.node[30].wlan[0].radio radioMode:vector ETV
attr interpolationmode sample-hold
attr source radioModeChanged
attr title "Radio mode, vector"
vector 211 Scenario.node[30].wlan[0].radio radioChannel:vector ETV
attr interpolationmode sample-hold
attr source radioChannelChanged
attr title "Radio channel, vector"
vector 212 Scenario.node[30].wlan[0].radio receptionState:vector ETV
attr interpolationmode sample-hold
attr source receptionStateChanged
attr title "Radio reception state, vector"
vector 213 Scenario.node[30].wlan[0].mac.dcf.recoveryProcedure contentionWindowChanged:vector ETV
attr interpolationmode sample-hold
attr title "contention window, vector"
vector 214 Scenario.node[31].wlan[0].radio radioMode:vector ETV
attr interpolationmode sample-hold
attr source radioModeChanged
attr title "Radio mode, vector"
vector 215 Scenario.node[31].wlan[0].radio radioChannel:vector ETV
attr interpolationmode sample-hold
attr source radioChannelChanged
attr title "Radio channel, vector"
vector 216 Scenario.node[31].wlan[0].radio receptionState:vector ETV
attr interpolationmode sample-hold
attr source receptionStateChanged
attr title "Radio reception state, vector"
vector 217 Scenario.node[31].wlan[0].mac.dcf.recoveryProcedure contentionWindowChanged:vector ETV
attr interpolationmode sample-hold
attr title "contention window, vector"
vector 218 Scenario.node[32].wlan[0].radio radioMode:vector ETV
attr interpolationmode sample-hold
attr source radioModeChanged
attr title "Radio mode, vector"
vector 219 Scenario.node[32].wlan[0].radio radioChannel:vector ETV
attr interpolationmode sample-hold
attr source radioChannelChanged
attr title "Radio channel, vector"
vector 220 Scenario.node[32].wlan[0].radio receptionState:vector ETV
attr interpolationmode sample-hold
attr source receptionStateChanged
attr title "Radio reception state, vector"
vector 221 Scenario.node[32].wlan[0].mac.dcf.recoveryProcedure contentionWindowChanged:vector ETV
attr interpolationmode sample-hold
attr title "contention window, vector"
vector 222 Scenario.node[33].wlan[0].radio radioMode:vector ETV
attr interpolationmode sample-hold
attr source radioModeChanged
attr title "Radio mode, vector"
vector 223 Scenario.node[33].wlan[0].radio radioChannel:vector ETV
attr interpolationmode sample-hold
attr source radioChannelChanged
attr title "Radio channel, vector"
vector 224 Scenario.node[33].wlan[0].radio receptionState:vector ETV
attr interpolationmode sample-hold
attr source receptionStateChanged
attr title "Radio reception state, vector"
vector 225 Scenario.node[33].wlan[0].mac.dcf.recoveryProcedure contentionWindowChanged:vector ETV
attr interpolationmode sample-hold
attr title "contention window, vector"
vector 226 Scenario.node[34].wlan[0].radio radioMode:vector ETV
attr interpolationmode sample-hold
attr source radioModeChanged
attr title "Radio mode, vector"
vector 227 Scenario.node[34].wlan[0].radio radioChannel:vector ETV
attr interpolationmode sample-hold
attr source radioChannelChanged
attr title "Radio channel, vector"
vector 228 Scenario.node[34].wlan[0].radio receptionState:vector ETV
attr interpolationmode sample-hold
attr source receptionStateChanged
attr title "Radio reception state, vector"
vector 229 Scenario.node[34].wlan[0].mac.dcf.recoveryProcedure contentionWindowChanged:vector ETV
attr interpolationmode sample-hold
attr title "contention window, vector"
vector 230 Scenario.node[35].wlan[0].radio radioMode:vector ETV
attr interpolationmode sample-hold
attr source radioModeChanged
attr title "Radio mode, vector"
vector 231 Scenario.node[35].wlan[0].radio radioChannel:vector ETV
attr interpolationmode sample-hold
attr source radioChannelChanged
attr title "Radio channel, vector"
vector 232 Scenario.node[35].wlan[0].radio receptionState:vector ETV
attr interpolationmode sample-hold
attr source receptionStateChanged
attr title "Radio reception state, vector"
vector 233 Scenario.node[35].wlan[0].mac.dcf.recoveryProcedure contentionWindowChanged:vector ETV
attr interpolationmode sample-hold
attr title "contention window, vector"
vector 234 Scenario.node[36].wlan[0].radio radioMode:vector ETV
attr interpolationmode sample-hold
attr source radioModeChanged
attr title "Radio mode, vector"
vector 235 Scenario.node[36].wlan[0].radio radioChannel:vector ETV
attr interpolationmode sample-hold
attr source radioChannelChanged
attr title "Radio channel, vector"
vector 236 Scenario.node[36].wlan[0].radio receptionState:vector ETV
attr interpolationmode sample-hold
attr source receptionStateChanged
attr title "Radio reception state, vector"
vector 237 Scenario.node[36].wlan[0].mac.dcf.recoveryProcedure contentionWindowChanged:vector ETV
attr interpolationmode sample-hold
attr title "contention window, vector"
vector 238 Scenario.node[37].wlan[0].radio radioMode:vector ETV
attr interpolationmode sample-hold
attr source radioModeChanged
attr title "Radio mode, vector"
vector 239 Scenario.node[37].wlan[0].radio radioChannel:vector ETV
attr interpolationmode sample-hold
attr source radioChannelChanged
attr title "Radio channel, vector"
vector 240 Scenario.node[37].wlan[0].radio receptionState:vector ETV
attr interpolationmode sample-hold
attr source receptionStateChanged
attr title "Radio reception state, vector"
vector 241 Scenario.node[37].wlan[0].mac.dcf.recoveryProcedure contentionWindowChanged:vector ETV
attr interpolationmode sample-hold
attr title "contention window, vector"
vector 242 Scenario.node[38].wlan[0].radio radioMode:vector ETV
attr interpolationmode sample-hold
attr source radioModeChanged
attr title "Radio mode, vector"
vector 243 Scenario.node[38].wlan[0].radio radioChannel:vector ETV
attr interpolationmode sample-hold
attr source radioChannelChanged
attr title "Radio channel, vector"
vector 244 Scenario.node[38].wlan[0].radio receptionState:vector ETV
attr interpolationmode sample-hold
attr source receptionStateChanged
attr title "Radio reception state, vector"
vector 245 Scenario.node[38].wlan[0].mac.dcf.recoveryProcedure contentionWindowChanged:vector ETV
attr interpolationmode sample-hold
attr title "contention window, vector"
vector 246 Scenario.node[39].wlan[0].radio radioMode:vector ETV
attr interpolationmode sample-hold
attr source radioModeChanged
attr title "Radio mode, vector"
vector 247 Scenario.node[39].wlan[0].radio radioChannel:vector ETV
attr interpolationmode sample-hold
attr source radioChannelChanged
attr title "Radio channel, vector"
vector 248 Scenario.node[39].wlan[0].radio receptionState:vector ETV
attr interpolationmode sample-hold
attr source receptionStateChanged
attr title "Radio reception state, vector"
vector 249 Scenario.node[39].wlan[0].mac.dcf.recoveryProcedure contentionWindowChanged:vector ETV
attr interpolationmode sample-hold
attr title "contention window, vector"
vector 250 Scenario.node[32].app[0] throughput:vector ETV
attr source throughput(packetReceived)
attr title "throughput, vector"
attr unit bps
221	675	34.1	15
219	675	34.1	3
218	675	34.1	0
218	675	34.1	0
218	675	34.1	2
220	675	34.1	1
250	799	0.1	0
250	799	0.2	0
250	799	0.3	0
250	799	0.4	0
250	799	0.5	0
250	799	0.6	0
250	799	0.7	0
250	799	0.8	0
250	799	0.9	0
250	799	1	0
250	799	1.1	0
250	799	1.2	0
250	799	1.3	0
250	799	1.4	0
250	799	1.5	0
250	799	1.6	0
250	799	1.7	0
250	799	1.8	0
250	799	1.9	0
250	799	2	0
250	799	2.1	0
250	799	2.2	0
250	799	2.3	0
250	799	2.4	0
250	799	2.5	0
250	799	2.6	0
250	799	2.7	0
250	799	2.8	0
250	799	2.9	0
250	799	3	0
250	799	3.1	0
250	799	3.2	0
250	799	3.3	0
250	799	3.4	0
250	799	3.5	0
250	799	3.6	0
250	799	3.7	0
250	799	3.8	0
250	799	3.9	0
250	799	4	0
250	799	4.1	0
250	799	4.2	0
250	799	4.3	0
250	799	4.4	0
250	799	4.5	0
250	799	4.6	0
250	799	4.7	0
250	799	4.8	0
250	799	4.9	0
250	799	5	0
250	799	5.1	0
250	799	5.2	0
250	799	5.3	0
250	799	5.4	0
250	799	5.5	0
250	799	5.6	0
250	799	5.7	0
250	799	5.8	0
250	799	5.9	0
250	799	6	0
250	799	6.1	0
250	799	6.2	0
250	799	6.3	0
250	799	6.4	0
250	799	6.5	0
250	799	6.6	0
250	799	6.7	0
250	799	6.8	0
250	799	6.9	0
250	799	7	0
250	799	7.1	0
250	799	7.2	0
250	799	7.3	0
250	799	7.4	0
250	799	7.5	0
250	799	7.6	0
250	799	7.7	0
250	799	7.8	0
250	799	7.9	0
250	799	8	0
250	799	8.1	0
250	799	8.2	0
250	799	8.3	0
250	799	8.4	0
250	799	8.5	0
250	799	8.6	0
250	799	8.7	0
250	799	8.8	0
250	799	8.9	0
250	799	9	0
250	799	9.1	0
250	799	9.2	0
250	799	9.3	0
250	799	9.4	0
250	799	9.5	0
250	799	9.6	0
250	799	9.7	0
250	799	9.8	0
250	799	9.9	0
250	799	10	0
250	799	10.1	0
250	799	10.2	0
250	799	10.3	0
250	799	10.4	0
250	799	10.5	0
250	799	10.6	0
250	799	10.7	0
250	799	10.8	0
250	799	10.9	0
250	799	11	0
250	799	11.1	0
250	799	11.2	0
250	799	11.3	0
250	799	11.4	0
250	799	11.5	0
250	799	11.6	0
250	799	11.7	0
250	799	11.8	0
250	799	11.9	0
250	799	12	0
250	799	12.1	0
250	799	12.2	0
250	799	12.3	0
250	799	12.4	0
250	799	12.5	0
250	799	12.6	0
250	799	12.7	0
250	799	12.8	0
250	799	12.9	0
250	799	13	0
250	799	13.1	0
250	799	13.2	0
250	799	13.3	0
250	799	13.4	0
250	799	13.5	0
250	799	13.6	0
250	799	13.7	0
250	799	13.8	0
250	799	13.9	0
250	799	14	0
250	799	14.1	0
250	799	14.2	0
250	799	14.3	0
250	799	14.4	0
250	799	14.5	0
250	799	14.6	0
250	799	14.7	0
250	799	14.8	0
250	799	14.9	0
250	799	15	0
250	799	15.1	0
250	799	15.2	0
250	799	15.3	0
250	799	15.4	0
250	799	15.5	0
250	799	15.6	0
250	799	15.7	0
250	799	15.8	0
250	799	15.9	0
250	799	16	0
250	799	16.1	0
250	799	16.2	0
250	799	16.3	0
250	799	16.4	0
250	799	16.5	0
250	799	16.6	0
250	799	16.7	0
250	799	16.8	0
250	799	16.9	0
250	799	17	0
250	799	17.1	0
250	799	17.2	0
250	799	17.3	0
250	799	17.4	0
250	799	17.5	0
250	799	17.6	0
250	799	17.7	0
250	799	17.8	0
250	799	17.9	0
250	799	18	0
250	799	18.1	0
250	799	18.2	0
250	799	18.3	0
250	799	18.4	0
250	799	18.5	0
250	799	18.6	0
250	799	18.7	0
250	799	18.8	0
250	799	18.9	0
250	799	19	0
250	799	19.1	0
250	799	19.2	0
250	799	19.3	0
250	799	19.4	0
250	799	19.5	0
250	799	19.6	0
250	799	19.7	0
250	799	19.8	0
250	799	19.9	0
250	799	20	0
250	799	20.1	0
250	799	20.2	0
250	799	20.3	0
250	799	20.4	0
250	799	20.5	0
250	799	20.6	0
250	799	20.7	0
250	799	20.8	0
250	799	20.9	0
250	799	21	0
250	799	21.1	0
250	799	21.2	0
250	799	21.3	0
250	799	21.4	0
250	799	21.5	0
250	799	21.6	0
250	799	21.7	0
250	799	21.8	0
250	799	21.9	0
250	799	22	0
250	799	22.1	0
250	799	22.2	0
250	799	22.3	0
250	799	22.4	0
250	799	22.5	0
250	799	22.6	0
250	799	22.7	0
250	799	22.8	0
250	799	22.9	0
250	799	23	0
250	799	23.1	0
250	799	23.2	0
250	799	23.3	0
250	799	23.4	0
250	799	23.5	0
250	799	23.6	0
250	799	23.7	0
250	799	23.8	0
250	799	23.9	0
250	799	24	0
250	799	24.1	0
250	799	24.2	0
250	799	24.3	0
250	799	24.4	0
250	799	24.5	0
250	799	24.6	0
250	799	24.7	0
250	799	24.8	0
250	799	24.9	0
250	799	25	0
250	799	25.1	0
250	799	25.2	0
250	799	25.3	0
250	799	25.4	0
250	799	25.5	0
250	799	25.6	0
250	799	25.7	0
250	799	25.8	0
250	799	25.9	0
250	799	26	0
250	799	26.1	0
250	799	26.2	0
250	799	26.3	0
250	799	26.4	0
250	799	26.5	0
250	799	26.6	0
250	799	26.7	0
250	799	26.8	0
250	799	26.9	0
250	799	27	0
250	799	27.1	0
250	799	27.2	0
250	799	27.3	0
250	799	27.4	0
250	799	27.5	0
250	799	27.6	0
250	799	27.7	0
250	799	27.8	0
250	799	27.9	0
250	799	28	0
250	799	28.1	0
250	799	28.2	0
250	799	28.3	0
250	799	28.4	0
250	799	28.5	0
250	799	28.6	0
250	799	28.7	0
250	799	28.8	0
250	799	28.9	0
250	799	29	0
250	799	29.1	0
250	799	29.2	0
250	799	29.3	0
250	799	29.4	0
250	799	29.5	0
250	799	29.6	0
250	799	29.7	0
250	799	29.8	0
250	799	29.9	0
250	799	30	0
250	799	30.1	0
250	799	30.2	0
250	799	30.3	0
250	799	30.4	0
250	799	30.5	0
250	799	30.6	0
250	799	30.7	0
250	799	30.8	0
250	799	30.9	0
250	799	31	0
250	799	31.1	0
250	799	31.2	0
250	799	31.3	0
250	799	31.4	0
250	799	31.5	0
250	799	31.6	0
250	799	31.7	0
250	799	31.8	0
250	799	31.9	0
250	799	32	0
250	799	32.1	0
250	799	32.2	0
250	799	32.3	0
250	799	32.4	0
250	799	32.5	0
250	799	32.6	0
250	799	32.7	0
250	799	32.8	0
250	799	32.9	0
250	799	33	0
250	799	33.1	0
250	799	33.2	0
250	799	33.3	0
250	799	33.4	0
250	799	33.5	0
250	799	33.6	0
250	799	33.7	0
250	799	33.8	0
250	799	33.9	0
250	799	34	0
250	799	34.1	0
250	799	34.2	0
250	799	34.3	0
250	799	34.4	0
250	799	34.5	0
250	799	34.6	0
250	799	34.7	0
250	799	34.8	0
250	799	34.9	0
250	799	35	0
250	799	35.1	0
250	799	35.2	0
250	799	35.3	0
250	799	35.4	0
250	799	35.5	0
250	799	35.6	0
250	799	35.7	0
250	799	35.8	0
250	799	35.9	0
250	799	36	0
250	799	36.1	0
250	799	36.2	0
250	799	36.3	0
250	799	36.4	0
250	799	36.5	0
250	799	36.6	0
250	799	36.7	0
250	799	36.8	0
250	799	36.9	0
250	799	37	0
250	799	37.1	0
250	799	37.2	0
250	799	37.3	0
250	799	37.4	0
250	799	37.5	0
250	799	37.6	0
250	799	37.7	0
250	799	37.8	0
250	799	37.9	0
250	799	38	0
250	799	38.1	0
250	799	38.2	0
250	799	38.3	0
250	799	38.4	0
250	799	38.5	0
250	799	38.6	0
250	799	38.7	0
250	799	38.8	0
250	799	38.9	0
250	799	39	0
250	799	39.1	0
250	799	39.2	0
250	799	39.3	0
250	799	39.4	0
250	799	39.5	0
250	799	39.6	0
250	799	39.7	0
250	799	39.8	0
250	799	39.9	0
250	799	40	0
250	799	40.1	0
250	799	40.2	0
250	799	40.3	0
250	799	40.4	0
250	799	40.5	0
250	799	40.6	0
250	799	40.7	0
250	799	40.8	0
250	799	40.9	0
250	799	41	0
250	799	41.1	0
250	799	41.2	0
250	799	41.3	0
250	799	41.4	0
250	799	41.5	0
250	799	41.6	0
250	799	41.7	0
250	799	41.8	0
250	799	41.9	0
250	799	42	0
250	799	42.1	0
250	799	42.2	0
250	799	42.3	0
250	799	42.4	0
250	799	42.5	0
250	799	42.6	0
250	799	42.7	0
250	799	42.8	0
250	799	42.9	0
250	799	43	0
250	799	43.1	0
250	799	43.2	0
250	799	43.3	0
250	799	43.4	0
250	799	43.5	0
250	799	43.6	0
250	799	43.7	0
250	799	43.8	0
250	799	43.9	0
250	799	44	0
250	799	44.1	0
vector 251 Scenario.node[40].wlan[0].radio radioMode:vector ETV
attr interpolationmode sample-hold
attr source radioModeChanged
attr title "Radio mode, vector"
vector 252 Scenario.node[40].wlan[0].radio radioChannel:vector ETV
attr interpolationmode sample-hold
attr source radioChannelChanged
attr title "Radio channel, vector"
vector 253 Scenario.node[40].wlan[0].radio receptionState:vector ETV
attr interpolationmode sample-hold
attr source receptionStateChanged
attr title "Radio reception state, vector"
vector 254 Scenario.node[40].wlan[0].mac.dcf.recoveryProcedure contentionWindowChanged:vector ETV
attr interpolationmode sample-hold
attr title "contention window, vector"
vector 255 Scenario.node[41].wlan[0].radio radioMode:vector ETV
attr interpolationmode sample-hold
attr source radioModeChanged
attr title "Radio mode, vector"
vector 256 Scenario.node[41].wlan[0].radio radioChannel:vector ETV
attr interpolationmode sample-hold
attr source radioChannelChanged
attr title "Radio channel, vector"
vector 257 Scenario.node[41].wlan[0].radio receptionState:vector ETV
attr interpolationmode sample-hold
attr source receptionStateChanged
attr title "Radio reception state, vector"
vector 258 Scenario.node[41].wlan[0].mac.dcf.recoveryProcedure contentionWindowChanged:vector ETV
attr interpolationmode sample-hold
attr title "contention window, vector"
vector 259 Scenario.node[42].wlan[0].radio radioMode:vector ETV
attr interpolationmode sample-hold
attr source radioModeChanged
attr title "Radio mode, vector"
vector 260 Scenario.node[42].wlan[0].radio radioChannel:vector ETV
attr interpolationmode sample-hold
attr source radioChannelChanged
attr title "Radio channel, vector"
vector 261 Scenario.node[42].wlan[0].radio receptionState:vector ETV
attr interpolationmode sample-hold
attr source receptionStateChanged
attr title "Radio reception state, vector"
vector 262 Scenario.node[42].wlan[0].mac.dcf.recoveryProcedure contentionWindowChanged:vector ETV
attr interpolationmode sample-hold
attr title "contention window, vector"
vector 263 Scenario.node[43].wlan[0].radio radioMode:vector ETV
attr interpolationmode sample-hold
attr source radioModeChanged
attr title "Radio mode, vector"
vector 264 Scenario.node[43].wlan[0].radio radioChannel:vector ETV
attr interpolationmode sample-hold
attr source radioChannelChanged
attr title "Radio channel, vector"
vector 265 Scenario.node[43].wlan[0].radio receptionState:vector ETV
attr interpolationmode sample-hold
attr source receptionStateChanged
attr title "Radio reception state, vector"
vector 266 Scenario.node[43].wlan[0].mac.dcf.recoveryProcedure contentionWindowChanged:vector ETV
attr interpolationmode sample-hold
attr title "contention window, vector"
vector 267 Scenario.node[44].wlan[0].radio radioMode:vector ETV
attr interpolationmode sample-hold
attr source radioModeChanged
attr title "Radio mode, vector"
vector 268 Scenario.node[44].wlan[0].radio radioChannel:vector ETV
attr interpolationmode sample-hold
attr source radioChannelChanged
attr title "Radio channel, vector"
vector 269 Scenario.node[44].wlan[0].radio receptionState:vector ETV
attr interpolationmode sample-hold
attr source receptionStateChanged
attr title "Radio reception state, vector"
vector 270 Scenario.node[44].wlan[0].mac.dcf.recoveryProcedure contentionWindowChanged:vector ETV
attr interpolationmode sample-hold
attr title "contention window, vector"
vector 271 Scenario.node[45].wlan[0].radio radioMode:vector ETV
attr interpolationmode sample-hold
attr source radioModeChanged
attr title "Radio mode, vector"
vector 272 Scenario.node[45].wlan[0].radio radioChannel:vector ETV
attr interpolationmode sample-hold
attr source radioChannelChanged
attr title "Radio channel, vector"
vector 273 Scenario.node[45].wlan[0].radio receptionState:vector ETV
attr interpolationmode sample-hold
attr source receptionStateChanged
attr title "Radio reception state, vector"
vector 274 Scenario.node[45].wlan[0].mac.dcf.recoveryProcedure contentionWindowChanged:vector ETV
attr interpolationmode sample-hold
attr title "contention window, vector"
vector 275 Scenario.node[46].wlan[0].radio radioMode:vector ETV
attr interpolationmode sample-hold
attr source radioModeChanged
attr title "Radio mode, vector"
vector 276 Scenario.node[46].wlan[0].radio radioChannel:vector ETV
attr interpolationmode sample-hold
attr source radioChannelChanged
attr title "Radio channel, vector"
vector 277 Scenario.node[46].wlan[0].radio receptionState:vector ETV
attr interpolationmode sample-hold
attr source receptionStateChanged
attr title "Radio reception state, vector"
vector 278 Scenario.node[46].wlan[0].mac.dcf.recoveryProcedure contentionWindowChanged:vector ETV
attr interpolationmode sample-hold
attr title "contention window, vector"
vector 279 Scenario.node[47].wlan[0].radio radioMode:vector ETV
attr interpolationmode sample-hold
attr source radioModeChanged
attr title "Radio mode, vector"
vector 280 Scenario.node[47].wlan[0].radio radioChannel:vector ETV
attr interpolationmode sample-hold
attr source radioChannelChanged
attr title "Radio channel, vector"
vector 281 Scenario.node[47].wlan[0].radio receptionState:vector ETV
attr interpolationmode sample-hold
attr source receptionStateChanged
attr title "Radio reception state, vector"
vector 282 Scenario.node[47].wlan[0].mac.dcf.recoveryProcedure contentionWindowChanged:vector ETV
attr interpolationmode sample-hold
attr title "contention window, vector"
vector 283 Scenario.node[48].wlan[0].radio radioMode:vector ETV
attr interpolationmode sample-hold
attr source radioModeChanged
attr title "Radio mode, vector"
vector 284 Scenario.node[48].wlan[0].radio radioChannel:vector ETV
attr interpolationmode sample-hold
attr source radioChannelChanged
attr title "Radio channel, vector"
vector 285 Scenario.node[48].wlan[0].radio receptionState:vector ETV
attr interpolationmode sample-hold
attr source receptionStateChanged
attr title "Radio reception state, vector"
vector 286 Scenario.node[48].wlan[0].mac.dcf.recoveryProcedure contentionWindowChanged:vector ETV
attr interpolationmode sample-hold
attr title "contention window, vector"
vector 287 Scenario.node[49].wlan[0].radio radioMode:vector ETV
attr interpolationmode sample-hold
attr source radioModeChanged
attr title "Radio mode, vector"
vector 288 Scenario.node[49].wlan[0].radio radioChannel:vector ETV
attr interpolationmode sample-hold
attr source radioChannelChanged
attr title "Radio channel, vector"
vector 289 Scenario.node[49].wlan[0].radio receptionState:vector ETV
attr interpolationmode sample-hold
attr source receptionStateChanged
attr title "Radio reception state, vector"
vector 290 Scenario.node[49].wlan[0].mac.dcf.recoveryProcedure contentionWindowChanged:vector ETV
attr interpolationmode sample-hold
attr title "contention window, vector"
vector 291 Scenario.node[50].wlan[0].radio radioMode:vector ETV
attr interpolationmode sample-hold
attr source radioModeChanged
attr title "Radio mode, vector"
vector 292 Scenario.node[50].wlan[0].radio radioChannel:vector ETV
attr interpolationmode sample-hold
attr source radioChannelChanged
attr title "Radio channel, vector"
vector 293 Scenario.node[50].wlan[0].radio receptionState:vector ETV
attr interpolationmode sample-hold
attr source receptionStateChanged
attr title "Radio reception state, vector"
vector 294 Scenario.node[50].wlan[0].mac.dcf.recoveryProcedure contentionWindowChanged:vector ETV
attr interpolationmode sample-hold
attr title "contention window, vector"
vector 295 Scenario.node[51].wlan[0].radio radioMode:vector ETV
attr interpolationmode sample-hold
attr source radioModeChanged
attr title "Radio mode, vector"
vector 296 Scenario.node[51].wlan[0].radio radioChannel:vector ETV
attr interpolationmode sample-hold
attr source radioChannelChanged
attr title "Radio channel, vector"
vector 297 Scenario.node[51].wlan[0].radio receptionState:vector ETV
attr interpolationmode sample-hold
attr source receptionStateChanged
attr title "Radio reception state, vector"
vector 298 Scenario.node[51].wlan[0].mac.dcf.recoveryProcedure contentionWindowChanged:vector ETV
attr interpolationmode sample-hold
attr title "contention window, vector"
vector 299 Scenario.node[52].wlan[0].radio radioMode:vector ETV
attr interpolationmode sample-hold
attr source radioModeChanged
attr title "Radio mode, vector"
vector 300 Scenario.node[52].wlan[0].radio radioChannel:vector ETV
attr interpolationmode sample-hold
attr source radioChannelChanged
attr title "Radio channel, vector"
vector 301 Scenario.node[52].wlan[0].radio receptionState:vector ETV
attr interpolationmode sample-hold
attr source receptionStateChanged
attr title "Radio reception state, vector"
vector 302 Scenario.node[52].wlan[0].mac.dcf.recoveryProcedure contentionWindowChanged:vector ETV
attr interpolationmode sample-hold
attr title "contention window, vector"
vector 303 Scenario.node[53].wlan[0].radio radioMode:vector ETV
attr interpolationmode sample-hold
attr source radioModeChanged
attr title "Radio mode, vector"
vector 304 Scenario.node[53].wlan[0].radio radioChannel:vector ETV
attr interpolationmode sample-hold
attr source radioChannelChanged
attr title "Radio channel, vector"
vector 305 Scenario.node[53].wlan[0].radio receptionState:vector ETV
attr interpolationmode sample-hold
attr source receptionStateChanged
attr title "Radio reception state, vector"
vector 306 Scenario.node[53].wlan[0].mac.dcf.recoveryProcedure contentionWindowChanged:vector ETV
attr interpolationmode sample-hold
attr title "contention window, vector"
vector 307 Scenario.node[54].wlan[0].radio radioMode:vector ETV
attr interpolationmode sample-hold
attr source radioModeChanged
attr title "Radio mode, vector"
vector 308 Scenario.node[54].wlan[0].radio radioChannel:vector ETV
attr interpolationmode sample-hold
attr source radioChannelChanged
attr title "Radio channel, vector"
vector 309 Scenario.node[54].wlan[0].radio receptionState:vector ETV
attr interpolationmode sample-hold
attr source receptionStateChanged
attr title "Radio reception state, vector"
vector 310 Scenario.node[54].wlan[0].mac.dcf.recoveryProcedure contentionWindowChanged:vector ETV
attr interpolationmode sample-hold
attr title "contention window, vector"
vector 311 Scenario.node[1].app[0] throughput:vector ETV
attr source throughput(packetReceived)
attr title "throughput, vector"
attr unit bps
vector 312 Scenario.node[2].app[0] throughput:vector ETV
attr source throughput(packetReceived)
attr title "throughput, vector"
attr unit bps
vector 313 Scenario.node[3].app[0] throughput:vector ETV
attr source throughput(packetReceived)
attr title "throughput, vector"
attr unit bps
vector 314 Scenario.node[4].app[0] throughput:vector ETV
attr source throughput(packetReceived)
attr title "throughput, vector"
attr unit bps
vector 315 Scenario.node[5].app[0] throughput:vector ETV
attr source throughput(packetReceived)
attr title "throughput, vector"
attr unit bps
vector 316 Scenario.node[6].app[0] throughput:vector ETV
attr source throughput(packetReceived)
attr title "throughput, vector"
attr unit bps
vector 317 Scenario.node[8].app[0] throughput:vector ETV
attr source throughput(packetReceived)
attr title "throughput, vector"
attr unit bps
vector 318 Scenario.node[9].app[0] throughput:vector ETV
attr source throughput(packetReceived)
attr title "throughput, vector"
attr unit bps
vector 319 Scenario.node[10].app[0] throughput:vector ETV
attr source throughput(packetReceived)
attr title "throughput, vector"
attr unit bps
vector 320 Scenario.node[11].app[0] throughput:vector ETV
attr source throughput(packetReceived)
attr title "throughput, vector"
attr unit bps
vector 321 Scenario.node[12].app[0] throughput:vector ETV
attr source throughput(packetReceived)
attr title "throughput, vector"
attr unit bps
vector 322 Scenario.node[13].app[0] throughput:vector ETV
attr source throughput(packetReceived)
attr title "throughput, vector"
attr unit bps
vector 323 Scenario.node[15].app[0] throughput:vector ETV
attr source throughput(packetReceived)
attr title "throughput, vector"
attr unit bps
vector 324 Scenario.node[16].app[0] throughput:vector ETV
attr source throughput(packetReceived)
attr title "throughput, vector"
attr unit bps
vector 325 Scenario.node[17].app[0] throughput:vector ETV
attr source throughput(packetReceived)
attr title "throughput, vector"
attr unit bps
vector 326 Scenario.node[18].app[0] throughput:vector ETV
attr source throughput(packetReceived)
attr title "throughput, vector"
attr unit bps
vector 327 Scenario.node[19].app[0] throughput:vector ETV
attr source throughput(packetReceived)
attr title "throughput, vector"
attr unit bps
vector 328 Scenario.node[20].app[0] throughput:vector ETV
attr source throughput(packetReceived)
attr title "throughput, vector"
attr unit bps
vector 329 Scenario.node[21].app[0] throughput:vector ETV
attr source throughput(packetReceived)
attr title "throughput, vector"
attr unit bps
vector 330 Scenario.node[22].app[0] throughput:vector ETV
attr source throughput(packetReceived)
attr title "throughput, vector"
attr unit bps
vector 331 Scenario.node[23].app[0] throughput:vector ETV
attr source throughput(packetReceived)
attr title "throughput, vector"
attr unit bps
vector 332 Scenario.node[24].app[0] throughput:vector ETV
attr source throughput(packetReceived)
attr title "throughput, vector"
attr unit bps
vector 333 Scenario.node[25].app[0] throughput:vector ETV
attr source throughput(packetReceived)
attr title "throughput, vector"
attr unit bps
vector 334 Scenario.node[26].app[0] throughput:vector ETV
attr source throughput(packetReceived)
attr title "throughput, vector"
attr unit bps
vector 335 Scenario.node[27].app[0] throughput:vector ETV
attr source throughput(packetReceived)
attr title "throughput, vector"
attr unit bps
vector 336 Scenario.node[28].app[0] throughput:vector ETV
attr source throughput(packetReceived)
attr title "throughput, vector"
attr unit bps
vector 337 Scenario.node[29].app[0] throughput:vector ETV
attr source throughput(packetReceived)
attr title "throughput, vector"
attr unit bps
vector 338 Scenario.node[30].app[0] throughput:vector ETV
attr source throughput(packetReceived)
attr title "throughput, vector"
attr unit bps
vector 339 Scenario.node[31].app[0] throughput:vector ETV
attr source throughput(packetReceived)
attr title "throughput, vector"
attr unit bps
vector 340 Scenario.node[33].app[0] throughput:vector ETV
attr source throughput(packetReceived)
attr title "throughput, vector"
attr unit bps
vector 341 Scenario.node[34].app[0] throughput:vector ETV
attr source throughput(packetReceived)
attr title "throughput, vector"
attr unit bps
vector 342 Scenario.node[35].app[0] throughput:vector ETV
attr source throughput(packetReceived)
attr title "throughput, vector"
attr unit bps
vector 343 Scenario.node[36].app[0] throughput:vector ETV
attr source throughput(packetReceived)
attr title "throughput, vector"
attr unit bps
vector 344 Scenario.node[37].app[0] throughput:vector ETV
attr source throughput(packetReceived)
attr title "throughput, vector"
attr unit bps
vector 345 Scenario.node[38].app[0] throughput:vector ETV
attr source throughput(packetReceived)
attr title "throughput, vector"
attr unit bps
vector 346 Scenario.node[39].app[0] throughput:vector ETV
attr source throughput(packetReceived)
attr title "throughput, vector"
attr unit bps
vector 347 Scenario.node[40].app[0] throughput:vector ETV
attr source throughput(packetReceived)
attr title "throughput, vector"
attr unit bps
vector 348 Scenario.node[41].app[0] throughput:vector ETV
attr source throughput(packetReceived)
attr title "throughput, vector"
attr unit bps
vector 349 Scenario.node[42].app[0] throughput:vector ETV
attr source throughput(packetReceived)
attr title "throughput, vector"
attr unit bps
vector 350 Scenario.node[43].app[0] throughput:vector ETV
attr source throughput(packetReceived)
attr title "throughput, vector"
attr unit bps
vector 351 Scenario.node[44].app[0] throughput:vector ETV
attr source throughput(packetReceived)
attr title "throughput, vector"
attr unit bps
vector 352 Scenario.node[45].app[0] throughput:vector ETV
attr source throughput(packetReceived)
attr title "throughput, vector"
attr unit bps
vector 353 Scenario.node[46].app[0] throughput:vector ETV
attr source throughput(packetReceived)
attr title "throughput, vector"
attr unit bps
vector 354 Scenario.node[47].app[0] throughput:vector ETV
attr source throughput(packetReceived)
attr title "throughput, vector"
attr unit bps
vector 355 Scenario.node[48].app[0] throughput:vector ETV
attr source throughput(packetReceived)
attr title "throughput, vector"
attr unit bps
vector 356 Scenario.node[49].app[0] throughput:vector ETV
attr source throughput(packetReceived)
attr title "throughput, vector"
attr unit bps
vector 357 Scenario.node[50].app[0] throughput:vector ETV
attr source throughput(packetReceived)
attr title "throughput, vector"
attr unit bps
vector 358 Scenario.node[51].app[0] throughput:vector ETV
attr source throughput(packetReceived)
attr title "throughput, vector"
attr unit bps
vector 359 Scenario.node[52].app[0] throughput:vector ETV
attr source throughput(packetReceived)
attr title "throughput, vector"
attr unit bps
vector 360 Scenario.node[53].app[0] throughput:vector ETV
attr source throughput(packetReceived)
attr title "throughput, vector"
attr unit bps
vector 361 Scenario.node[54].app[0] throughput:vector ETV
attr source throughput(packetReceived)
attr title "throughput, vector"
attr unit bps
0	2	0.1	0
0	2	0.1	0
0	2	0.1	2
0	275	20	3
0	295	20.000152	2
0	341	20.00021	3
0	361	20.000362	2
1	2	0.1	3
2	2	0.1	1
2	275	20	0
2	295	20.000152	1
2	341	20.00021	0
2	361	20.000362	1
2	394	20.000551600246	3
2	418	20.000703600246	1
2	443	20.000826608353	3
2	462	20.000978608353	1
3	2	0.1	15
4	15	1.1	0
4	15	1.1	0
4	15	1.1	2
5	15	1.1	3
6	15	1.1	1
7	15	1.1	15
8	28	2.1	0
8	28	2.1	0
8	28	2.1	2
9	28	2.1	3
10	28	2.1	1
11	28	2.1	15
12	41	3.1	0
12	41	3.1	0
12	41	3.1	2
13	41	3.1	3
14	41	3.1	1
15	41	3.1	15
16	54	4.1	0
16	54	4.1	0
16	54	4.1	2
17	54	4.1	3
18	54	4.1	1
19	54	4.1	15
20	67	5.1	0
20	67	5.1	0
20	67	5.1	2
21	67	5.1	3
22	67	5.1	1
23	67	5.1	15
24	80	6.1	0
24	80	6.1	0
24	80	6.1	2
25	80	6.1	3
26	80	6.1	1
27	80	6.1	15
28	93	7.1	0
28	93	7.1	0
28	93	7.1	2
28	391	20.000550800123	3
28	411	20.000702800123	2
29	93	7.1	3
30	93	7.1	1
30	278	20.000000800123	3
30	310	20.000152800123	1
30	344	20.000210800123	3
30	368	20.000362800123	1
30	391	20.000550800123	0
30	411	20.000702800123	1
30	444	20.000827261833	3
30	468	20.000979261833	1
31	93	7.1	15
32	106	8.1	0
32	106	8.1	0
32	106	8.1	2
33	106	8.1	3
34	106	8.1	1
35	106	8.1	15
36	119	9.1	0
36	119	9.1	0
36	119	9.1	2
37	119	9.1	3
38	119	9.1	1
39	119	9.1	15
40	132	10.1	0
40	132	10.1	0
40	132	10.1	2
41	132	10.1	3
42	132	10.1	1
43	132	10.1	15
44	165	13.1	0
44	165	13.1	0
44	165	13.1	2
45	165	13.1	3
46	165	13.1	1
47	165	13.1	15
48	178	14.1	0
48	178	14.1	0
48	178	14.1	2
49	178	14.1	3
50	178	14.1	1
51	178	14.1	15
52	191	15.1	0
52	191	15.1	0
52	191	15.1	2
53	191	15.1	3
54	191	15.1	1
55	191	15.1	15
56	204	16.1	0
56	204	16.1	0
56	204	16.1	2
56	441	20.000826530978	3
56	461	20.000978530978	2
57	204	16.1	3
58	204	16.1	1
58	277	20.000000077375	3
58	296	20.000152077375	1
58	343	20.000210077375	3
58	362	20.000362077375	1
58	393	20.000551530978	3
58	412	20.000703530978	1
58	441	20.000826530978	0
58	461	20.000978530978	1
59	204	16.1	15
60	217	17.1	0
60	217	17.1	0
60	217	17.1	2
61	217	17.1	3
62	217	17.1	1
63	217	17.1	15
64	230	18.1	0
64	230	18.1	0
64	230	18.1	2
65	230	18.1	3
66	230	18.1	1
67	230	18.1	15
68	243	19.1	0
68	243	19.1	0
68	243	19.1	2
69	243	19.1	3
70	243	19.1	1
71	243	19.1	15
72	255	20	100
72	264	20	100
73	257	20	108
73	265	20	108
74	259	20	128
74	267	20	128
75	259	20	128
75	267	20	128
76	262	20	130
76	270	20	130
77	262	20	158
77	270	20	158
78	262	20	1
78	270	20	2
78	274	20	1
78	274	20	0
79	262	20	15
79	294	20.000152	0
80	262	20	1
80	273	20	0
80	295	20.000152	1
80	339	20.00021	0
81	263	20	108
81	271	20	108
81	422	20.000703600246	108
81	466	20.000978608353	108
82	263	20	1
82	271	20	2
82	422	20.000703600246	3
82	466	20.000978608353	4
83	264	20	100
83	272	20	100
83	423	20.000703600246	100
83	467	20.000978608353	100
84	264	0.1	0
84	264	0.2	0
84	264	0.3	0
84	264	0.4	0
84	264	0.5	0
84	264	0.6	0
84	264	0.7	0
84	264	0.8	0
84	264	0.9	0
84	264	1	0
84	264	1.1	0
84	264	1.2	0
84	264	1.3	0
84	264	1.4	0
84	264	1.5	0
84	264	1.6	0
84	264	1.7	0
84	264	1.8	0
84	264	1.9	0
84	264	2	0
84	264	2.1	0
84	264	2.2	0
84	264	2.3	0
84	264	2.4	0
84	264	2.5	0
84	264	2.6	0
84	264	2.7	0
84	264	2.8	0
84	264	2.9	0
84	264	3	0
84	264	3.1	0
84	264	3.2	0
84	264	3.3	0
84	264	3.4	0
84	264	3.5	0
84	264	3.6	0
84	264	3.7	0
84	264	3.8	0
84	264	3.9	0
84	264	4	0
84	264	4.1	0
84	264	4.2	0
84	264	4.3	0
84	264	4.4	0
84	264	4.5	0
84	264	4.6	0
84	264	4.7	0
84	264	4.8	0
84	264	4.9	0
84	264	5	0
84	264	5.1	0
84	264	5.2	0
84	264	5.3	0
84	264	5.4	0
84	264	5.5	0
84	264	5.6	0
84	264	5.7	0
84	264	5.8	0
84	264	5.9	0
84	264	6	0
84	264	6.1	0
84	264	6.2	0
84	264	6.3	0
84	264	6.4	0
84	264	6.5	0
84	264	6.6	0
84	264	6.7	0
84	264	6.8	0
84	264	6.9	0
84	264	7	0
84	264	7.1	0
84	264	7.2	0
84	264	7.3	0
84	264	7.4	0
84	264	7.5	0
84	264	7.6	0
84	264	7.7	0
84	264	7.8	0
84	264	7.9	0
84	264	8	0
84	264	8.1	0
84	264	8.2	0
84	264	8.3	0
84	264	8.4	0
84	264	8.5	0
84	264	8.6	0
84	264	8.7	0
84	264	8.8	0
84	264	8.9	0
84	264	9	0
84	264	9.1	0
84	264	9.2	0
84	264	9.3	0
84	264	9.4	0
84	264	9.5	0
84	264	9.6	0
84	264	9.7	0
84	264	9.8	0
84	264	9.9	0
84	264	10	0
84	264	10.1	0
84	264	10.2	0
84	264	10.3	0
84	264	10.4	0
84	264	10.5	0
84	264	10.6	0
84	264	10.7	0
84	264	10.8	0
84	264	10.9	0
84	264	11	0
84	264	11.1	0
84	264	11.2	0
84	264	11.3	0
84	264	11.4	0
84	264	11.5	0
84	264	11.6	0
84	264	11.7	0
84	264	11.8	0
84	264	11.9	0
84	264	12	0
84	264	12.1	0
84	264	12.2	0
84	264	12.3	0
84	264	12.4	0
84	264	12.5	0
84	264	12.6	0
84	264	12.7	0
84	264	12.8	0
84	264	12.9	0
84	264	13	0
84	264	13.1	0
84	264	13.2	0
84	264	13.3	0
84	264	13.4	0
84	264	13.5	0
84	264	13.6	0
84	264	13.7	0
84	264	13.8	0
84	264	13.9	0
84	264	14	0
84	264	14.1	0
84	264	14.2	0
84	264	14.3	0
84	264	14.4	0
84	264	14.5	0
84	264	14.6	0
84	264	14.7	0
84	264	14.8	0
84	264	14.9	0
84	264	15	0
84	264	15.1	0
84	264	15.2	0
84	264	15.3	0
84	264	15.4	0
84	264	15.5	0
84	264	15.6	0
84	264	15.7	0
84	264	15.8	0
84	264	15.9	0
84	264	16	0
84	264	16.1	0
84	264	16.2	0
84	264	16.3	0
84	264	16.4	0
84	264	16.5	0
84	264	16.6	0
84	264	16.7	0
84	264	16.8	0
84	264	16.9	0
84	264	17	0
84	264	17.1	0
84	264	17.2	0
84	264	17.3	0
84	264	17.4	0
84	264	17.5	0
84	264	17.6	0
84	264	17.7	0
84	264	17.8	0
84	264	17.9	0
84	264	18	0
84	264	18.1	0
84	264	18.2	0
84	264	18.3	0
84	264	18.4	0
84	264	18.5	0
84	264	18.6	0
84	264	18.7	0
84	264	18.8	0
84	264	18.9	0
84	264	19	0
84	264	19.1	0
84	264	19.2	0
84	264	19.3	0
84	264	19.4	0
84	264	19.5	0
84	264	19.6	0
84	264	19.7	0
84	264	19.8	0
84	264	19.9	0
84	264	20	0
84	1005	20.1	32000
84	1005	20.2	0
84	1005	20.3	0
84	1005	20.4	0
84	1005	20.5	0
84	1005	20.6	0
84	1005	20.7	0
84	1005	20.8	0
84	1005	20.9	0
84	1005	21	0
84	1005	21.1	0
84	1005	21.2	0
84	1005	21.3	0
84	1005	21.4	0
84	1005	21.5	0
84	1005	21.6	0
84	1005	21.7	0
84	1005	21.8	0
84	1005	21.9	0
84	1005	22	0
84	1005	22.1	0
84	1005	22.2	0
84	1005	22.3	0
84	1005	22.4	0
84	1005	22.5	0
84	1005	22.6	0
84	1005	22.7	0
84	1005	22.8	0
84	1005	22.9	0
84	1005	23	0
84	1005	23.1	0
84	1005	23.2	0
84	1005	23.3	0
84	1005	23.4	0
84	1005	23.5	0
84	1005	23.6	0
84	1005	23.7	0
84	1005	23.8	0
84	1005	23.9	0
84	1005	24	0
84	1005	24.1	0
84	1005	24.2	0
84	1005	24.3	0
84	1005	24.4	0
84	1005	24.5	0
84	1005	24.6	0
84	1005	24.7	0
84	1005	24.8	0
84	1005	24.9	0
84	1005	25	0
84	1005	25.1	0
84	1005	25.2	0
84	1005	25.3	0
84	1005	25.4	0
84	1005	25.5	0
84	1005	25.6	0
84	1005	25.7	0
84	1005	25.8	0
84	1005	25.9	0
84	1005	26	0
84	1005	26.1	0
84	1005	26.2	0
84	1005	26.3	0
84	1005	26.4	0
84	1005	26.5	0
84	1005	26.6	0
84	1005	26.7	0
84	1005	26.8	0
84	1005	26.9	0
84	1005	27	0
84	1005	27.1	0
84	1005	27.2	0
84	1005	27.3	0
84	1005	27.4	0
84	1005	27.5	0
84	1005	27.6	0
84	1005	27.7	0
84	1005	27.8	0
84	1005	27.9	0
84	1005	28	0
84	1005	28.1	0
84	1005	28.2	0
84	1005	28.3	0
84	1005	28.4	0
84	1005	28.5	0
84	1005	28.6	0
84	1005	28.7	0
84	1005	28.8	0
84	1005	28.9	0
84	1005	29	0
84	1005	29.1	0
84	1005	29.2	0
84	1005	29.3	0
84	1005	29.4	0
84	1005	29.5	0
84	1005	29.6	0
84	1005	29.7	0
84	1005	29.8	0
84	1005	29.9	0
84	1005	30	0
84	1005	30.1	0
84	1005	30.2	0
84	1005	30.3	0
84	1005	30.4	0
84	1005	30.5	0
84	1005	30.6	0
84	1005	30.7	0
84	1005	30.8	0
84	1005	30.9	0
84	1005	31	0
84	1005	31.1	0
84	1005	31.2	0
84	1005	31.3	0
84	1005	31.4	0
84	1005	31.5	0
84	1005	31.6	0
84	1005	31.7	0
84	1005	31.8	0
84	1005	31.9	0
84	1005	32	0
84	1005	32.1	0
84	1005	32.2	0
84	1005	32.3	0
84	1005	32.4	0
84	1005	32.5	0
84	1005	32.6	0
84	1005	32.7	0
84	1005	32.8	0
84	1005	32.9	0
84	1005	33	0
84	1005	33.1	0
84	1005	33.2	0
84	1005	33.3	0
84	1005	33.4	0
84	1005	33.5	0
84	1005	33.6	0
84	1005	33.7	0
84	1005	33.8	0
84	1005	33.9	0
84	1005	34	0
84	1005	34.1	0
84	1005	34.2	0
84	1005	34.3	0
84	1005	34.4	0
84	1005	34.5	0
84	1005	34.6	0
84	1005	34.7	0
84	1005	34.8	0
84	1005	34.9	0
84	1005	35	0
84	1005	35.1	0
84	1005	35.2	0
84	1005	35.3	0
84	1005	35.4	0
84	1005	35.5	0
84	1005	35.6	0
84	1005	35.7	0
84	1005	35.8	0
84	1005	35.9	0
84	1005	36	0
84	1005	36.1	0
84	1005	36.2	0
84	1005	36.3	0
84	1005	36.4	0
84	1005	36.5	0
84	1005	36.6	0
84	1005	36.7	0
84	1005	36.8	0
84	1005	36.9	0
84	1005	37	0
84	1005	37.1	0
84	1005	37.2	0
84	1005	37.3	0
84	1005	37.4	0
84	1005	37.5	0
84	1005	37.6	0
84	1005	37.7	0
84	1005	37.8	0
84	1005	37.9	0
84	1005	38	0
84	1005	38.1	0
84	1005	38.2	0
84	1005	38.3	0
84	1005	38.4	0
84	1005	38.5	0
84	1005	38.6	0
84	1005	38.7	0
84	1005	38.8	0
84	1005	38.9	0
84	1005	39	0
84	1005	39.1	0
84	1005	39.2	0
84	1005	39.3	0
84	1005	39.4	0
84	1005	39.5	0
84	1005	39.6	0
84	1005	39.7	0
84	1005	39.8	0
84	1005	39.9	0
84	1005	40	0
84	1005	40.1	0
84	1005	40.2	0
84	1005	40.3	0
84	1005	40.4	0
[...]
359	1005	52.3	0
359	1005	52.4	0
359	1005	52.5	0
359	1005	52.6	0
359	1005	52.7	0
359	1005	52.8	0
359	1005	52.9	0
359	1005	53	0
359	1005	53.1	0
359	1005	53.2	0
359	1005	53.3	0
359	1005	53.4	0
359	1005	53.5	0
359	1005	53.6	0
359	1005	53.7	0
359	1005	53.8	0
359	1005	53.9	0
359	1005	54	0
359	1005	54.1	0
359	1005	54.2	0
359	1005	54.3	0
359	1005	54.4	0
359	1005	54.5	0
359	1005	54.6	0
359	1005	54.7	0
359	1005	54.8	0
359	1005	54.9	0
359	1005	55	0
359	1005	55.1	0
359	1005	55.2	0
359	1005	55.3	0
359	1005	55.4	0
359	1005	55.5	0
359	1005	55.6	0
359	1005	55.7	0
359	1005	55.8	0
359	1005	55.9	0
359	1005	56	0
359	1005	56.1	0
359	1005	56.2	0
359	1005	56.3	0
359	1005	56.4	0
359	1005	56.5	0
359	1005	56.6	0
359	1005	56.7	0
359	1005	56.8	0
359	1005	56.9	0
359	1005	57	0
359	1005	57.1	0
359	1005	57.2	0
359	1005	57.3	0
359	1005	57.4	0
359	1005	57.5	0
359	1005	57.6	0
359	1005	57.7	0
359	1005	57.8	0
359	1005	57.9	0
359	1005	58	0
359	1005	58.1	0
359	1005	58.2	0
359	1005	58.3	0
359	1005	58.4	0
359	1005	58.5	0
359	1005	58.6	0
359	1005	58.7	0
359	1005	58.8	0
359	1005	58.9	0
359	1005	59	0
359	1005	59.1	0
359	1005	59.2	0
359	1005	59.3	0
359	1005	59.4	0
359	1005	59.5	0
359	1005	59.6	0
359	1005	59.7	0
359	1005	59.8	0
359	1005	59.9	0
359	1005	60	0
360	1005	0.1	0
360	1005	0.2	0
360	1005	0.3	0
360	1005	0.4	0
360	1005	0.5	0
360	1005	0.6	0
360	1005	0.7	0
360	1005	0.8	0
360	1005	0.9	0
360	1005	1	0
360	1005	1.1	0
360	1005	1.2	0
360	1005	1.3	0
360	1005	1.4	0
360	1005	1.5	0
360	1005	1.6	0
360	1005	1.7	0
360	1005	1.8	0
360	1005	1.9	0
360	1005	2	0
360	1005	2.1	0
360	1005	2.2	0
360	1005	2.3	0
360	1005	2.4	0
360	1005	2.5	0
360	1005	2.6	0
360	1005	2.7	0
360	1005	2.8	0
360	1005	2.9	0
360	1005	3	0
360	1005	3.1	0
360	1005	3.2	0
360	1005	3.3	0
360	1005	3.4	0
360	1005	3.5	0
360	1005	3.6	0
360	1005	3.7	0
360	1005	3.8	0
360	1005	3.9	0
360	1005	4	0
360	1005	4.1	0
360	1005	4.2	0
360	1005	4.3	0
360	1005	4.4	0
360	1005	4.5	0
360	1005	4.6	0
360	1005	4.7	0
360	1005	4.8	0
360	1005	4.9	0
360	1005	5	0
360	1005	5.1	0
360	1005	5.2	0
360	1005	5.3	0
360	1005	5.4	0
360	1005	5.5	0
360	1005	5.6	0
360	1005	5.7	0
360	1005	5.8	0
360	1005	5.9	0
360	1005	6	0
360	1005	6.1	0
360	1005	6.2	0
360	1005	6.3	0
360	1005	6.4	0
360	1005	6.5	0
360	1005	6.6	0
360	1005	6.7	0
360	1005	6.8	0
360	1005	6.9	0
360	1005	7	0
360	1005	7.1	0
360	1005	7.2	0
360	1005	7.3	0
360	1005	7.4	0
360	1005	7.5	0
360	1005	7.6	0
360	1005	7.7	0
360	1005	7.8	0
360	1005	7.9	0
360	1005	8	0
360	1005	8.1	0
360	1005	8.2	0
360	1005	8.3	0
360	1005	8.4	0
360	1005	8.5	0
360	1005	8.6	0
360	1005	8.7	0
360	1005	8.8	0
360	1005	8.9	0
360	1005	9	0
360	1005	9.1	0
360	1005	9.2	0
360	1005	9.3	0
360	1005	9.4	0
360	1005	9.5	0
360	1005	9.6	0
360	1005	9.7	0
360	1005	9.8	0
360	1005	9.9	0
360	1005	10	0
360	1005	10.1	0
360	1005	10.2	0
360	1005	10.3	0
360	1005	10.4	0
360	1005	10.5	0
360	1005	10.6	0
360	1005	10.7	0
360	1005	10.8	0
360	1005	10.9	0
360	1005	11	0
360	1005	11.1	0
360	1005	11.2	0
360	1005	11.3	0
360	1005	11.4	0
360	1005	11.5	0
360	1005	11.6	0
360	1005	11.7	0
360	1005	11.8	0
360	1005	11.9	0
360	1005	12	0
360	1005	12.1	0
360	1005	12.2	0
360	1005	12.3	0
360	1005	12.4	0
360	1005	12.5	0
360	1005	12.6	0
360	1005	12.7	0
360	1005	12.8	0
360	1005	12.9	0
360	1005	13	0
360	1005	13.1	0
360	1005	13.2	0
360	1005	13.3	0
360	1005	13.4	0
360	1005	13.5	0
360	1005	13.6	0
360	1005	13.7	0
360	1005	13.8	0
360	1005	13.9	0
360	1005	14	0
360	1005	14.1	0
360	1005	14.2	0
360	1005	14.3	0
360	1005	14.4	0
360	1005	14.5	0
360	1005	14.6	0
360	1005	14.7	0
360	1005	14.8	0
360	1005	14.9	0
360	1005	15	0
360	1005	15.1	0
360	1005	15.2	0
360	1005	15.3	0
360	1005	15.4	0
360	1005	15.5	0
360	1005	15.6	0
360	1005	15.7	0
360	1005	15.8	0
360	1005	15.9	0
360	1005	16	0
360	1005	16.1	0
360	1005	16.2	0
360	1005	16.3	0
360	1005	16.4	0
360	1005	16.5	0
360	1005	16.6	0
360	1005	16.7	0
360	1005	16.8	0
360	1005	16.9	0
360	1005	17	0
360	1005	17.1	0
360	1005	17.2	0
360	1005	17.3	0
360	1005	17.4	0
360	1005	17.5	0
360	1005	17.6	0
360	1005	17.7	0
360	1005	17.8	0
360	1005	17.9	0
360	1005	18	0
360	1005	18.1	0
360	1005	18.2	0
360	1005	18.3	0
360	1005	18.4	0
360	1005	18.5	0
360	1005	18.6	0
360	1005	18.7	0
360	1005	18.8	0
360	1005	18.9	0
360	1005	19	0
360	1005	19.1	0
360	1005	19.2	0
360	1005	19.3	0
360	1005	19.4	0
360	1005	19.5	0
360	1005	19.6	0
360	1005	19.7	0
360	1005	19.8	0
360	1005	19.9	0
360	1005	20	0
360	1005	20.1	0
360	1005	20.2	0
360	1005	20.3	0
360	1005	20.4	0
360	1005	20.5	0
360	1005	20.6	0
360	1005	20.7	0
360	1005	20.8	0
360	1005	20.9	0
360	1005	21	0
360	1005	21.1	0
360	1005	21.2	0
360	1005	21.3	0
360	1005	21.4	0
360	1005	21.5	0
360	1005	21.6	0
360	1005	21.7	0
360	1005	21.8	0
360	1005	21.9	0
360	1005	22	0
360	1005	22.1	0
360	1005	22.2	0
360	1005	22.3	0
360	1005	22.4	0
360	1005	22.5	0
360	1005	22.6	0
360	1005	22.7	0
360	1005	22.8	0
360	1005	22.9	0
360	1005	23	0
360	1005	23.1	0
360	1005	23.2	0
360	1005	23.3	0
360	1005	23.4	0
360	1005	23.5	0
360	1005	23.6	0
360	1005	23.7	0
360	1005	23.8	0
360	1005	23.9	0
360	1005	24	0
360	1005	24.1	0
360	1005	24.2	0
360	1005	24.3	0
360	1005	24.4	0
360	1005	24.5	0
360	1005	24.6	0
360	1005	24.7	0
360	1005	24.8	0
360	1005	24.9	0
360	1005	25	0
360	1005	25.1	0
360	1005	25.2	0
360	1005	25.3	0
360	1005	25.4	0
360	1005	25.5	0
360	1005	25.6	0
360	1005	25.7	0
360	1005	25.8	0
360	1005	25.9	0
360	1005	26	0
360	1005	26.1	0
360	1005	26.2	0
360	1005	26.3	0
360	1005	26.4	0
360	1005	26.5	0
360	1005	26.6	0
360	1005	26.7	0
360	1005	26.8	0
360	1005	26.9	0
360	1005	27	0
360	1005	27.1	0
360	1005	27.2	0
360	1005	27.3	0
360	1005	27.4	0
360	1005	27.5	0
360	1005	27.6	0
360	1005	27.7	0
360	1005	27.8	0
360	1005	27.9	0
360	1005	28	0
360	1005	28.1	0
360	1005	28.2	0
360	1005	28.3	0
360	1005	28.4	0
360	1005	28.5	0
360	1005	28.6	0
360	1005	28.7	0
360	1005	28.8	0
360	1005	28.9	0
360	1005	29	0
360	1005	29.1	0
360	1005	29.2	0
360	1005	29.3	0
360	1005	29.4	0
360	1005	29.5	0
360	1005	29.6	0
360	1005	29.7	0
360	1005	29.8	0
360	1005	29.9	0
360	1005	30	0
360	1005	30.1	0
360	1005	30.2	0
360	1005	30.3	0
360	1005	30.4	0
360	1005	30.5	0
360	1005	30.6	0
360	1005	30.7	0
360	1005	30.8	0
360	1005	30.9	0
360	1005	31	0
360	1005	31.1	0
360	1005	31.2	0
360	1005	31.3	0
360	1005	31.4	0
360	1005	31.5	0
360	1005	31.6	0
360	1005	31.7	0
360	1005	31.8	0
360	1005	31.9	0
360	1005	32	0
360	1005	32.1	0
360	1005	32.2	0
360	1005	32.3	0
360	1005	32.4	0
360	1005	32.5	0
360	1005	32.6	0
360	1005	32.7	0
360	1005	32.8	0
360	1005	32.9	0
360	1005	33	0
360	1005	33.1	0
360	1005	33.2	0
360	1005	33.3	0
360	1005	33.4	0
360	1005	33.5	0
360	1005	33.6	0
360	1005	33.7	0
360	1005	33.8	0
360	1005	33.9	0
360	1005	34	0
360	1005	34.1	0
360	1005	34.2	0
360	1005	34.3	0
360	1005	34.4	0
360	1005	34.5	0
360	1005	34.6	0
360	1005	34.7	0
360	1005	34.8	0
360	1005	34.9	0
360	1005	35	0
360	1005	35.1	0
360	1005	35.2	0
360	1005	35.3	0
360	1005	35.4	0
360	1005	35.5	0
360	1005	35.6	0
360	1005	35.7	0
360	1005	35.8	0
360	1005	35.9	0
360	1005	36	0
360	1005	36.1	0
360	1005	36.2	0
360	1005	36.3	0
360	1005	36.4	0
360	1005	36.5	0
360	1005	36.6	0
360	1005	36.7	0
360	1005	36.8	0
360	1005	36.9	0
360	1005	37	0
360	1005	37.1	0
360	1005	37.2	0
360	1005	37.3	0
360	1005	37.4	0
360	1005	37.5	0
360	1005	37.6	0
360	1005	37.7	0
360	1005	37.8	0
360	1005	37.9	0
360	1005	38	0
360	1005	38.1	0
360	1005	38.2	0
360	1005	38.3	0
360	1005	38.4	0
360	1005	38.5	0
360	1005	38.6	0
360	1005	38.7	0
360	1005	38.8	0
360	1005	38.9	0
360	1005	39	0
360	1005	39.1	0
360	1005	39.2	0
360	1005	39.3	0
360	1005	39.4	0
360	1005	39.5	0
360	1005	39.6	0
360	1005	39.7	0
360	1005	39.8	0
360	1005	39.9	0
360	1005	40	0
360	1005	40.1	0
360	1005	40.2	0
360	1005	40.3	0
360	1005	40.4	0
360	1005	40.5	0
360	1005	40.6	0
360	1005	40.7	0
360	1005	40.8	0
360	1005	40.9	0
360	1005	41	0
360	1005	41.1	0
360	1005	41.2	0
360	1005	41.3	0
360	1005	41.4	0
360	1005	41.5	0
360	1005	41.6	0
360	1005	41.7	0
360	1005	41.8	0
360	1005	41.9	0
360	1005	42	0
360	1005	42.1	0
360	1005	42.2	0
360	1005	42.3	0
360	1005	42.4	0
360	1005	42.5	0
360	1005	42.6	0
360	1005	42.7	0
360	1005	42.8	0
360	1005	42.9	0
360	1005	43	0
360	1005	43.1	0
360	1005	43.2	0
360	1005	43.3	0
360	1005	43.4	0
360	1005	43.5	0
360	1005	43.6	0
360	1005	43.7	0
360	1005	43.8	0
360	1005	43.9	0
360	1005	44	0
360	1005	44.1	0
360	1005	44.2	0
360	1005	44.3	0
360	1005	44.4	0
360	1005	44.5	0
360	1005	44.6	0
360	1005	44.7	0
360	1005	44.8	0
360	1005	44.9	0
360	1005	45	0
360	1005	45.1	0
360	1005	45.2	0
360	1005	45.3	0
360	1005	45.4	0
360	1005	45.5	0
360	1005	45.6	0
360	1005	45.7	0
360	1005	45.8	0
360	1005	45.9	0
360	1005	46	0
360	1005	46.1	0
360	1005	46.2	0
360	1005	46.3	0
360	1005	46.4	0
360	1005	46.5	0
360	1005	46.6	0
360	1005	46.7	0
360	1005	46.8	0
360	1005	46.9	0
360	1005	47	0
360	1005	47.1	0
360	1005	47.2	0
360	1005	47.3	0
360	1005	47.4	0
360	1005	47.5	0
360	1005	47.6	0
360	1005	47.7	0
360	1005	47.8	0
360	1005	47.9	0
360	1005	48	0
360	1005	48.1	0
360	1005	48.2	0
360	1005	48.3	0
360	1005	48.4	0
360	1005	48.5	0
360	1005	48.6	0
360	1005	48.7	0
360	1005	48.8	0
360	1005	48.9	0
360	1005	49	0
360	1005	49.1	0
360	1005	49.2	0
360	1005	49.3	0
360	1005	49.4	0
360	1005	49.5	0
360	1005	49.6	0
360	1005	49.7	0
360	1005	49.8	0
360	1005	49.9	0
360	1005	50	0
360	1005	50.1	0
360	1005	50.2	0
360	1005	50.3	0
360	1005	50.4	0
360	1005	50.5	0
360	1005	50.6	0
360	1005	50.7	0
360	1005	50.8	0
360	1005	50.9	0
360	1005	51	0
360	1005	51.1	0
360	1005	51.2	0
360	1005	51.3	0
360	1005	51.4	0
360	1005	51.5	0
360	1005	51.6	0
360	1005	51.7	0
360	1005	51.8	0
360	1005	51.9	0
360	1005	52	0
360	1005	52.1	0
360	1005	52.2	0
360	1005	52.3	0
360	1005	52.4	0
360	1005	52.5	0
360	1005	52.6	0
360	1005	52.7	0
360	1005	52.8	0
360	1005	52.9	0
360	1005	53	0
360	1005	53.1	0
360	1005	53.2	0
360	1005	53.3	0
360	1005	53.4	0
360	1005	53.5	0
360	1005	53.6	0
360	1005	53.7	0
360	1005	53.8	0
360	1005	53.9	0
360	1005	54	0
360	1005	54.1	0
360	1005	54.2	0
360	1005	54.3	0
360	1005	54.4	0
360	1005	54.5	0
360	1005	54.6	0
360	1005	54.7	0
360	1005	54.8	0
360	1005	54.9	0
360	1005	55	0
360	1005	55.1	0
360	1005	55.2	0
360	1005	55.3	0
360	1005	55.4	0
360	1005	55.5	0
360	1005	55.6	0
360	1005	55.7	0
360	1005	55.8	0
360	1005	55.9	0
360	1005	56	0
360	1005	56.1	0
360	1005	56.2	0
360	1005	56.3	0
360	1005	56.4	0
360	1005	56.5	0
360	1005	56.6	0
360	1005	56.7	0
360	1005	56.8	0
360	1005	56.9	0
360	1005	57	0
360	1005	57.1	0
360	1005	57.2	0
360	1005	57.3	0
360	1005	57.4	0
360	1005	57.5	0
360	1005	57.6	0
360	1005	57.7	0
360	1005	57.8	0
360	1005	57.9	0
360	1005	58	0
360	1005	58.1	0
360	1005	58.2	0
360	1005	58.3	0
360	1005	58.4	0
360	1005	58.5	0
360	1005	58.6	0
360	1005	58.7	0
360	1005	58.8	0
360	1005	58.9	0
360	1005	59	0
360	1005	59.1	0
360	1005	59.2	0
360	1005	59.3	0
360	1005	59.4	0
360	1005	59.5	0
360	1005	59.6	0
360	1005	59.7	0
360	1005	59.8	0
360	1005	59.9	0
360	1005	60	0
361	1005	0.1	0
361	1005	0.2	0
361	1005	0.3	0
361	1005	0.4	0
361	1005	0.5	0
361	1005	0.6	0
361	1005	0.7	0
361	1005	0.8	0
361	1005	0.9	0
361	1005	1	0
361	1005	1.1	0
361	1005	1.2	0
361	1005	1.3	0
361	1005	1.4	0
361	1005	1.5	0
361	1005	1.6	0
361	1005	1.7	0
361	1005	1.8	0
361	1005	1.9	0
361	1005	2	0
361	1005	2.1	0
361	1005	2.2	0
361	1005	2.3	0
361	1005	2.4	0
361	1005	2.5	0
361	1005	2.6	0
361	1005	2.7	0
361	1005	2.8	0
361	1005	2.9	0
361	1005	3	0
361	1005	3.1	0
361	1005	3.2	0
361	1005	3.3	0
361	1005	3.4	0
361	1005	3.5	0
361	1005	3.6	0
361	1005	3.7	0
361	1005	3.8	0
361	1005	3.9	0
361	1005	4	0
361	1005	4.1	0
361	1005	4.2	0
361	1005	4.3	0
361	1005	4.4	0
361	1005	4.5	0
361	1005	4.6	0
361	1005	4.7	0
361	1005	4.8	0
361	1005	4.9	0
361	1005	5	0
361	1005	5.1	0
361	1005	5.2	0
361	1005	5.3	0
361	1005	5.4	0
361	1005	5.5	0
361	1005	5.6	0
361	1005	5.7	0
361	1005	5.8	0
361	1005	5.9	0
361	1005	6	0
361	1005	6.1	0
361	1005	6.2	0
361	1005	6.3	0
361	1005	6.4	0
361	1005	6.5	0
361	1005	6.6	0
361	1005	6.7	0
361	1005	6.8	0
361	1005	6.9	0
361	1005	7	0
361	1005	7.1	0
361	1005	7.2	0
361	1005	7.3	0
361	1005	7.4	0
361	1005	7.5	0
361	1005	7.6	0
361	1005	7.7	0
361	1005	7.8	0
361	1005	7.9	0
361	1005	8	0
361	1005	8.1	0
361	1005	8.2	0
361	1005	8.3	0
361	1005	8.4	0
361	1005	8.5	0
361	1005	8.6	0
361	1005	8.7	0
361	1005	8.8	0
361	1005	8.9	0
361	1005	9	0
361	1005	9.1	0
361	1005	9.2	0
361	1005	9.3	0
361	1005	9.4	0
361	1005	9.5	0
361	1005	9.6	0
361	1005	9.7	0
361	1005	9.8	0
361	1005	9.9	0
361	1005	10	0
361	1005	10.1	0
361	1005	10.2	0
361	1005	10.3	0
361	1005	10.4	0
361	1005	10.5	0
361	1005	10.6	0
361	1005	10.7	0
361	1005	10.8	0
361	1005	10.9	0
361	1005	11	0
361	1005	11.1	0
361	1005	11.2	0
361	1005	11.3	0
361	1005	11.4	0
361	1005	11.5	0
361	1005	11.6	0
361	1005	11.7	0
361	1005	11.8	0
361	1005	11.9	0
361	1005	12	0
361	1005	12.1	0
361	1005	12.2	0
361	1005	12.3	0
361	1005	12.4	0
361	1005	12.5	0
361	1005	12.6	0
361	1005	12.7	0
361	1005	12.8	0
361	1005	12.9	0
361	1005	13	0
361	1005	13.1	0
361	1005	13.2	0
361	1005	13.3	0
361	1005	13.4	0
361	1005	13.5	0
361	1005	13.6	0
361	1005	13.7	0
361	1005	13.8	0
361	1005	13.9	0
361	1005	14	0
361	1005	14.1	0
361	1005	14.2	0
361	1005	14.3	0
361	1005	14.4	0
361	1005	14.5	0
361	1005	14.6	0
361	1005	14.7	0
361	1005	14.8	0
361	1005	14.9	0
361	1005	15	0
361	1005	15.1	0
361	1005	15.2	0
361	1005	15.3	0
361	1005	15.4	0
361	1005	15.5	0
361	1005	15.6	0
361	1005	15.7	0
361	1005	15.8	0
361	1005	15.9	0
361	1005	16	0
361	1005	16.1	0
361	1005	16.2	0
361	1005	16.3	0
361	1005	16.4	0
361	1005	16.5	0
361	1005	16.6	0
361	1005	16.7	0
361	1005	16.8	0
361	1005	16.9	0
361	1005	17	0
361	1005	17.1	0
361	1005	17.2	0
361	1005	17.3	0
361	1005	17.4	0
361	1005	17.5	0
361	1005	17.6	0
361	1005	17.7	0
361	1005	17.8	0
361	1005	17.9	0
361	1005	18	0
361	1005	18.1	0
361	1005	18.2	0
361	1005	18.3	0
361	1005	18.4	0
361	1005	18.5	0
361	1005	18.6	0
361	1005	18.7	0
361	1005	18.8	0
361	1005	18.9	0
361	1005	19	0
361	1005	19.1	0
361	1005	19.2	0
361	1005	19.3	0
361	1005	19.4	0
361	1005	19.5	0
361	1005	19.6	0
361	1005	19.7	0
361	1005	19.8	0
361	1005	19.9	0
361	1005	20	0
361	1005	20.1	0
361	1005	20.2	0
361	1005	20.3	0
361	1005	20.4	0
361	1005	20.5	0
361	1005	20.6	0
361	1005	20.7	0
361	1005	20.8	0
361	1005	20.9	0
361	1005	21	0
361	1005	21.1	0
361	1005	21.2	0
361	1005	21.3	0
361	1005	21.4	0
361	1005	21.5	0
361	1005	21.6	0
361	1005	21.7	0
361	1005	21.8	0
361	1005	21.9	0
361	1005	22	0
361	1005	22.1	0
361	1005	22.2	0
361	1005	22.3	0
361	1005	22.4	0
361	1005	22.5	0
361	1005	22.6	0
361	1005	22.7	0
361	1005	22.8	0
361	1005	22.9	0
361	1005	23	0
361	1005	23.1	0
361	1005	23.2	0
361	1005	23.3	0
361	1005	23.4	0
361	1005	23.5	0
361	1005	23.6	0
361	1005	23.7	0
361	1005	23.8	0
361	1005	23.9	0
361	1005	24	0
361	1005	24.1	0
361	1005	24.2	0
361	1005	24.3	0
361	1005	24.4	0
361	1005	24.5	0
361	1005	24.6	0
361	1005	24.7	0
361	1005	24.8	0
361	1005	24.9	0
361	1005	25	0
361	1005	25.1	0
361	1005	25.2	0
361	1005	25.3	0
361	1005	25.4	0
361	1005	25.5	0
361	1005	25.6	0
361	1005	25.7	0
361	1005	25.8	0
361	1005	25.9	0
361	1005	26	0
361	1005	26.1	0
361	1005	26.2	0
361	1005	26.3	0
361	1005	26.4	0
361	1005	26.5	0
361	1005	26.6	0
361	1005	26.7	0
361	1005	26.8	0
361	1005	26.9	0
361	1005	27	0
361	1005	27.1	0
361	1005	27.2	0
361	1005	27.3	0
361	1005	27.4	0
361	1005	27.5	0
361	1005	27.6	0
361	1005	27.7	0
361	1005	27.8	0
361	1005	27.9	0
361	1005	28	0
361	1005	28.1	0
361	1005	28.2	0
361	1005	28.3	0
361	1005	28.4	0
361	1005	28.5	0
361	1005	28.6	0
361	1005	28.7	0
361	1005	28.8	0
361	1005	28.9	0
361	1005	29	0
361	1005	29.1	0
361	1005	29.2	0
361	1005	29.3	0
361	1005	29.4	0
361	1005	29.5	0
361	1005	29.6	0
361	1005	29.7	0
361	1005	29.8	0
361	1005	29.9	0
361	1005	30	0
361	1005	30.1	0
361	1005	30.2	0
361	1005	30.3	0
361	1005	30.4	0
361	1005	30.5	0
361	1005	30.6	0
361	1005	30.7	0
361	1005	30.8	0
361	1005	30.9	0
361	1005	31	0
361	1005	31.1	0
361	1005	31.2	0
361	1005	31.3	0
361	1005	31.4	0
361	1005	31.5	0
361	1005	31.6	0
361	1005	31.7	0
361	1005	31.8	0
361	1005	31.9	0
361	1005	32	0
361	1005	32.1	0
361	1005	32.2	0
361	1005	32.3	0
361	1005	32.4	0
361	1005	32.5	0
361	1005	32.6	0
361	1005	32.7	0
361	1005	32.8	0
361	1005	32.9	0
361	1005	33	0
361	1005	33.1	0
361	1005	33.2	0
361	1005	33.3	0
361	1005	33.4	0
361	1005	33.5	0
361	1005	33.6	0
361	1005	33.7	0
361	1005	33.8	0
361	1005	33.9	0
361	1005	34	0
361	1005	34.1	0
361	1005	34.2	0
361	1005	34.3	0
361	1005	34.4	0
361	1005	34.5	0
361	1005	34.6	0
361	1005	34.7	0
361	1005	34.8	0
361	1005	34.9	0
361	1005	35	0
361	1005	35.1	0
361	1005	35.2	0
361	1005	35.3	0
361	1005	35.4	0
361	1005	35.5	0
361	1005	35.6	0
361	1005	35.7	0
361	1005	35.8	0
361	1005	35.9	0
361	1005	36	0
361	1005	36.1	0
361	1005	36.2	0
361	1005	36.3	0
361	1005	36.4	0
361	1005	36.5	0
361	1005	36.6	0
361	1005	36.7	0
361	1005	36.8	0
361	1005	36.9	0
361	1005	37	0
361	1005	37.1	0
361	1005	37.2	0
361	1005	37.3	0
361	1005	37.4	0
361	1005	37.5	0
361	1005	37.6	0
361	1005	37.7	0
361	1005	37.8	0
361	1005	37.9	0
361	1005	38	0
361	1005	38.1	0
361	1005	38.2	0
361	1005	38.3	0
361	1005	38.4	0
361	1005	38.5	0
361	1005	38.6	0
361	1005	38.7	0
361	1005	38.8	0
361	1005	38.9	0
361	1005	39	0
361	1005	39.1	0
361	1005	39.2	0
361	1005	39.3	0
361	1005	39.4	0
361	1005	39.5	0
361	1005	39.6	0
361	1005	39.7	0
361	1005	39.8	0
361	1005	39.9	0
361	1005	40	0
361	1005	40.1	0
361	1005	40.2	0
361	1005	40.3	0
361	1005	40.4	0
361	1005	40.5	0
361	1005	40.6	0
361	1005	40.7	0
361	1005	40.8	0
361	1005	40.9	0
361	1005	41	0
361	1005	41.1	0
361	1005	41.2	0
361	1005	41.3	0
361	1005	41.4	0
361	1005	41.5	0
361	1005	41.6	0
361	1005	41.7	0
361	1005	41.8	0
361	1005	41.9	0
361	1005	42	0
361	1005	42.1	0
361	1005	42.2	0
361	1005	42.3	0
361	1005	42.4	0
361	1005	42.5	0
361	1005	42.6	0
361	1005	42.7	0
361	1005	42.8	0
361	1005	42.9	0
361	1005	43	0
361	1005	43.1	0
361	1005	43.2	0
361	1005	43.3	0
361	1005	43.4	0
361	1005	43.5	0
361	1005	43.6	0
361	1005	43.7	0
361	1005	43.8	0
361	1005	43.9	0
361	1005	44	0
361	1005	44.1	0
361	1005	44.2	0
361	1005	44.3	0
361	1005	44.4	0
361	1005	44.5	0
361	1005	44.6	0
361	1005	44.7	0
361	1005	44.8	0
361	1005	44.9	0
361	1005	45	0
361	1005	45.1	0
361	1005	45.2	0
361	1005	45.3	0
361	1005	45.4	0
361	1005	45.5	0
361	1005	45.6	0
361	1005	45.7	0
361	1005	45.8	0
361	1005	45.9	0
361	1005	46	0
361	1005	46.1	0
361	1005	46.2	0
361	1005	46.3	0
361	1005	46.4	0
361	1005	46.5	0
361	1005	46.6	0
361	1005	46.7	0
361	1005	46.8	0
361	1005	46.9	0
361	1005	47	0
361	1005	47.1	0
361	1005	47.2	0
361	1005	47.3	0
361	1005	47.4	0
361	1005	47.5	0
361	1005	47.6	0
361	1005	47.7	0
361	1005	47.8	0
361	1005	47.9	0
361	1005	48	0
361	1005	48.1	0
361	1005	48.2	0
361	1005	48.3	0
361	1005	48.4	0
361	1005	48.5	0
361	1005	48.6	0
361	1005	48.7	0
361	1005	48.8	0
361	1005	48.9	0
361	1005	49	0
361	1005	49.1	0
361	1005	49.2	0
361	1005	49.3	0
361	1005	49.4	0
361	1005	49.5	0
361	1005	49.6	0
361	1005	49.7	0
361	1005	49.8	0
361	1005	49.9	0
361	1005	50	0
361	1005	50.1	0
361	1005	50.2	0
361	1005	50.3	0
361	1005	50.4	0
361	1005	50.5	0
361	1005	50.6	0
361	1005	50.7	0
361	1005	50.8	0
361	1005	50.9	0
361	1005	51	0
361	1005	51.1	0
361	1005	51.2	0
361	1005	51.3	0
361	1005	51.4	0
361	1005	51.5	0
361	1005	51.6	0
361	1005	51.7	0
361	1005	51.8	0
361	1005	51.9	0
361	1005	52	0
361	1005	52.1	0
361	1005	52.2	0
361	1005	52.3	0
361	1005	52.4	0
361	1005	52.5	0
361	1005	52.6	0
361	1005	52.7	0
361	1005	52.8	0
361	1005	52.9	0
361	1005	53	0
361	1005	53.1	0
361	1005	53.2	0
361	1005	53.3	0
361	1005	53.4	0
361	1005	53.5	0
361	1005	53.6	0
361	1005	53.7	0
361	1005	53.8	0
361	1005	53.9	0
361	1005	54	0
361	1005	54.1	0
361	1005	54.2	0
361	1005	54.3	0
361	1005	54.4	0
361	1005	54.5	0
361	1005	54.6	0
361	1005	54.7	0
361	1005	54.8	0
361	1005	54.9	0
361	1005	55	0
361	1005	55.1	0
361	1005	55.2	0
361	1005	55.3	0
361	1005	55.4	0
361	1005	55.5	0
361	1005	55.6	0
361	1005	55.7	0
361	1005	55.8	0
361	1005	55.9	0
361	1005	56	0
361	1005	56.1	0
361	1005	56.2	0
361	1005	56.3	0
361	1005	56.4	0
361	1005	56.5	0
361	1005	56.6	0
361	1005	56.7	0
361	1005	56.8	0
361	1005	56.9	0
361	1005	57	0
361	1005	57.1	0
361	1005	57.2	0
361	1005	57.3	0
361	1005	57.4	0
361	1005	57.5	0
361	1005	57.6	0
361	1005	57.7	0
361	1005	57.8	0
361	1005	57.9	0
361	1005	58	0
361	1005	58.1	0
361	1005	58.2	0
361	1005	58.3	0
361	1005	58.4	0
361	1005	58.5	0
361	1005	58.6	0
361	1005	58.7	0
361	1005	58.8	0
361	1005	58.9	0
361	1005	59	0
361	1005	59.1	0
361	1005	59.2	0
361	1005	59.3	0
361	1005	59.4	0
361	1005	59.5	0
361	1005	59.6	0
361	1005	59.7	0
361	1005	59.8	0
361	1005	59.9	0
361	1005	60	0

