version 2
run plain-0-20220516-16:55:35-17108
attr configname plain
attr datetime 20220516-16:55:35
attr experiment plain
attr inifile omnetpp.ini
attr iterationvars ""
attr iterationvarsf ""
attr measurement ""
attr network Scenario
attr processid 17108
attr repetition 0
attr replication #0
attr resultdir results
attr runnumber 0
attr seedset 0
param *.node[*].numApps 1
param *.node[*].app[0].typename "\"org.car2x.veins.subprojects.veins_inet.VeinsInetSampleApplication\""
param *.node[*].app[0].interface "\"wlan0\""
param *.node[*].wlan[0].opMode "\"p\""
param *.node[*].wlan[0].radio.typename "\"Ieee80211DimensionalRadio\""
param *.node[*].wlan[0].radio.bandName "\"5.9 GHz\""
param *.node[*].wlan[0].radio.channelNumber 3
param *.node[*].wlan[0].radio.transmitter.power 20mW
param *.node[*].wlan[0].radio.bandwidth "10 MHz"
param *.node[*].wlan[*].radio.antenna.mobility.typename "\"AttachedMobility\""
param *.node[*].wlan[*].radio.antenna.mobility.mobilityModule "\"^.^.^.^.mobility\""
param *.node[*].wlan[*].radio.antenna.mobility.offsetX -2.5m
param *.node[*].wlan[*].radio.antenna.mobility.offsetZ 1.5m
param *.node[*].wlan[*].radio.antenna.mobility.constraintAreaMinX 0m
param *.node[*].wlan[*].radio.antenna.mobility.constraintAreaMaxX 0m
param *.node[*].wlan[*].radio.antenna.mobility.constraintAreaMinY 0m
param *.node[*].wlan[*].radio.antenna.mobility.constraintAreaMaxY 0m
param *.node[*].wlan[*].radio.antenna.mobility.constraintAreaMinZ 0m
param *.node[*].wlan[*].radio.antenna.mobility.constraintAreaMaxZ 0m
param *.node[*].ipv4.configurator.typename "\"HostAutoConfigurator\""
param *.node[*].ipv4.configurator.interfaces "\"wlan0\""
param *.node[*].ipv4.configurator.mcastGroups "\"224.0.0.1\""
param *.node[*].mobility.typename "\"VeinsInetMobility\""
param *.manager.updateInterval 0.1s
param *.manager.host "\"localhost\""
param *.manager.port 9999
param *.manager.autoShutdown true
param *.manager.launchConfig "xmldoc(\"FresnoState.launchd.xml\")"
param *.manager.moduleType "\"org.car2x.veins.subprojects.veins_inet.VeinsInetCar\""
param *.physicalEnvironment.config "xmldoc(\"obstacles.xml\")"
param *.radioMedium.obstacleLoss.typename "\"IdealObstacleLoss\""

vector 0 Scenario.node[0].wlan[0].radio radioMode:vector ETV
attr interpolationmode sample-hold
attr source radioModeChanged
attr title "Radio mode, vector"
vector 1 Scenario.node[0].wlan[0].radio radioChannel:vector ETV
attr interpolationmode sample-hold
attr source radioChannelChanged
attr title "Radio channel, vector"
vector 2 Scenario.node[0].wlan[0].radio receptionState:vector ETV
attr interpolationmode sample-hold
attr source receptionStateChanged
attr title "Radio reception state, vector"
vector 3 Scenario.node[0].wlan[0].mac.dcf.recoveryProcedure contentionWindowChanged:vector ETV
attr interpolationmode sample-hold
attr title "contention window, vector"
vector 4 Scenario.node[1].wlan[0].radio radioMode:vector ETV
attr interpolationmode sample-hold
attr source radioModeChanged
attr title "Radio mode, vector"
vector 5 Scenario.node[1].wlan[0].radio radioChannel:vector ETV
attr interpolationmode sample-hold
attr source radioChannelChanged
attr title "Radio channel, vector"
vector 6 Scenario.node[1].wlan[0].radio receptionState:vector ETV
attr interpolationmode sample-hold
attr source receptionStateChanged
attr title "Radio reception state, vector"
vector 7 Scenario.node[1].wlan[0].mac.dcf.recoveryProcedure contentionWindowChanged:vector ETV
attr interpolationmode sample-hold
attr title "contention window, vector"
vector 8 Scenario.node[2].wlan[0].radio radioMode:vector ETV
attr interpolationmode sample-hold
attr source radioModeChanged
attr title "Radio mode, vector"
vector 9 Scenario.node[2].wlan[0].radio radioChannel:vector ETV
attr interpolationmode sample-hold
attr source radioChannelChanged
attr title "Radio channel, vector"
vector 10 Scenario.node[2].wlan[0].radio receptionState:vector ETV
attr interpolationmode sample-hold
attr source receptionStateChanged
attr title "Radio reception state, vector"
vector 11 Scenario.node[2].wlan[0].mac.dcf.recoveryProcedure contentionWindowChanged:vector ETV
attr interpolationmode sample-hold
attr title "contention window, vector"
vector 12 Scenario.node[3].wlan[0].radio radioMode:vector ETV
attr interpolationmode sample-hold
attr source radioModeChanged
attr title "Radio mode, vector"
vector 13 Scenario.node[3].wlan[0].radio radioChannel:vector ETV
attr interpolationmode sample-hold
attr source radioChannelChanged
attr title "Radio channel, vector"
vector 14 Scenario.node[3].wlan[0].radio receptionState:vector ETV
attr interpolationmode sample-hold
attr source receptionStateChanged
attr title "Radio reception state, vector"
vector 15 Scenario.node[3].wlan[0].mac.dcf.recoveryProcedure contentionWindowChanged:vector ETV
attr interpolationmode sample-hold
attr title "contention window, vector"
vector 16 Scenario.node[4].wlan[0].radio radioMode:vector ETV
attr interpolationmode sample-hold
attr source radioModeChanged
attr title "Radio mode, vector"
vector 17 Scenario.node[4].wlan[0].radio radioChannel:vector ETV
attr interpolationmode sample-hold
attr source radioChannelChanged
attr title "Radio channel, vector"
vector 18 Scenario.node[4].wlan[0].radio receptionState:vector ETV
attr interpolationmode sample-hold
attr source receptionStateChanged
attr title "Radio reception state, vector"
vector 19 Scenario.node[4].wlan[0].mac.dcf.recoveryProcedure contentionWindowChanged:vector ETV
attr interpolationmode sample-hold
attr title "contention window, vector"
vector 20 Scenario.node[5].wlan[0].radio radioMode:vector ETV
attr interpolationmode sample-hold
attr source radioModeChanged
attr title "Radio mode, vector"
vector 21 Scenario.node[5].wlan[0].radio radioChannel:vector ETV
attr interpolationmode sample-hold
attr source radioChannelChanged
attr title "Radio channel, vector"
vector 22 Scenario.node[5].wlan[0].radio receptionState:vector ETV
attr interpolationmode sample-hold
attr source receptionStateChanged
attr title "Radio reception state, vector"
vector 23 Scenario.node[5].wlan[0].mac.dcf.recoveryProcedure contentionWindowChanged:vector ETV
attr interpolationmode sample-hold
attr title "contention window, vector"
vector 24 Scenario.node[6].wlan[0].radio radioMode:vector ETV
attr interpolationmode sample-hold
attr source radioModeChanged
attr title "Radio mode, vector"
vector 25 Scenario.node[6].wlan[0].radio radioChannel:vector ETV
attr interpolationmode sample-hold
attr source radioChannelChanged
attr title "Radio channel, vector"
vector 26 Scenario.node[6].wlan[0].radio receptionState:vector ETV
attr interpolationmode sample-hold
attr source receptionStateChanged
attr title "Radio reception state, vector"
vector 27 Scenario.node[6].wlan[0].mac.dcf.recoveryProcedure contentionWindowChanged:vector ETV
attr interpolationmode sample-hold
attr title "contention window, vector"
vector 28 Scenario.node[7].wlan[0].radio radioMode:vector ETV
attr interpolationmode sample-hold
attr source radioModeChanged
attr title "Radio mode, vector"
vector 29 Scenario.node[7].wlan[0].radio radioChannel:vector ETV
attr interpolationmode sample-hold
attr source radioChannelChanged
attr title "Radio channel, vector"
vector 30 Scenario.node[7].wlan[0].radio receptionState:vector ETV
attr interpolationmode sample-hold
attr source receptionStateChanged
attr title "Radio reception state, vector"
vector 31 Scenario.node[7].wlan[0].mac.dcf.recoveryProcedure contentionWindowChanged:vector ETV
attr interpolationmode sample-hold
attr title "contention window, vector"
vector 32 Scenario.node[8].wlan[0].radio radioMode:vector ETV
attr interpolationmode sample-hold
attr source radioModeChanged
attr title "Radio mode, vector"
vector 33 Scenario.node[8].wlan[0].radio radioChannel:vector ETV
attr interpolationmode sample-hold
attr source radioChannelChanged
attr title "Radio channel, vector"
vector 34 Scenario.node[8].wlan[0].radio receptionState:vector ETV
attr interpolationmode sample-hold
attr source receptionStateChanged
attr title "Radio reception state, vector"
vector 35 Scenario.node[8].wlan[0].mac.dcf.recoveryProcedure contentionWindowChanged:vector ETV
attr interpolationmode sample-hold
attr title "contention window, vector"
vector 36 Scenario.node[9].wlan[0].radio radioMode:vector ETV
attr interpolationmode sample-hold
attr source radioModeChanged
attr title "Radio mode, vector"
vector 37 Scenario.node[9].wlan[0].radio radioChannel:vector ETV
attr interpolationmode sample-hold
attr source radioChannelChanged
attr title "Radio channel, vector"
vector 38 Scenario.node[9].wlan[0].radio receptionState:vector ETV
attr interpolationmode sample-hold
attr source receptionStateChanged
attr title "Radio reception state, vector"
vector 39 Scenario.node[9].wlan[0].mac.dcf.recoveryProcedure contentionWindowChanged:vector ETV
attr interpolationmode sample-hold
attr title "contention window, vector"
vector 40 Scenario.node[10].wlan[0].radio radioMode:vector ETV
attr interpolationmode sample-hold
attr source radioModeChanged
attr title "Radio mode, vector"
vector 41 Scenario.node[10].wlan[0].radio radioChannel:vector ETV
attr interpolationmode sample-hold
attr source radioChannelChanged
attr title "Radio channel, vector"
vector 42 Scenario.node[10].wlan[0].radio receptionState:vector ETV
attr interpolationmode sample-hold
attr source receptionStateChanged
attr title "Radio reception state, vector"
vector 43 Scenario.node[10].wlan[0].mac.dcf.recoveryProcedure contentionWindowChanged:vector ETV
attr interpolationmode sample-hold
attr title "contention window, vector"
vector 44 Scenario.node[11].wlan[0].radio radioMode:vector ETV
attr interpolationmode sample-hold
attr source radioModeChanged
attr title "Radio mode, vector"
vector 45 Scenario.node[11].wlan[0].radio radioChannel:vector ETV
attr interpolationmode sample-hold
attr source radioChannelChanged
attr title "Radio channel, vector"
vector 46 Scenario.node[11].wlan[0].radio receptionState:vector ETV
attr interpolationmode sample-hold
attr source receptionStateChanged
attr title "Radio reception state, vector"
vector 47 Scenario.node[11].wlan[0].mac.dcf.recoveryProcedure contentionWindowChanged:vector ETV
attr interpolationmode sample-hold
attr title "contention window, vector"
vector 48 Scenario.node[12].wlan[0].radio radioMode:vector ETV
attr interpolationmode sample-hold
attr source radioModeChanged
attr title "Radio mode, vector"
vector 49 Scenario.node[12].wlan[0].radio radioChannel:vector ETV
attr interpolationmode sample-hold
attr source radioChannelChanged
attr title "Radio channel, vector"
vector 50 Scenario.node[12].wlan[0].radio receptionState:vector ETV
attr interpolationmode sample-hold
attr source receptionStateChanged
attr title "Radio reception state, vector"
vector 51 Scenario.node[12].wlan[0].mac.dcf.recoveryProcedure contentionWindowChanged:vector ETV
attr interpolationmode sample-hold
attr title "contention window, vector"
vector 52 Scenario.node[13].wlan[0].radio radioMode:vector ETV
attr interpolationmode sample-hold
attr source radioModeChanged
attr title "Radio mode, vector"
vector 53 Scenario.node[13].wlan[0].radio radioChannel:vector ETV
attr interpolationmode sample-hold
attr source radioChannelChanged
attr title "Radio channel, vector"
vector 54 Scenario.node[13].wlan[0].radio receptionState:vector ETV
attr interpolationmode sample-hold
attr source receptionStateChanged
attr title "Radio reception state, vector"
vector 55 Scenario.node[13].wlan[0].mac.dcf.recoveryProcedure contentionWindowChanged:vector ETV
attr interpolationmode sample-hold
attr title "contention window, vector"
vector 56 Scenario.node[14].wlan[0].radio radioMode:vector ETV
attr interpolationmode sample-hold
attr source radioModeChanged
attr title "Radio mode, vector"
vector 57 Scenario.node[14].wlan[0].radio radioChannel:vector ETV
attr interpolationmode sample-hold
attr source radioChannelChanged
attr title "Radio channel, vector"
vector 58 Scenario.node[14].wlan[0].radio receptionState:vector ETV
attr interpolationmode sample-hold
attr source receptionStateChanged
attr title "Radio reception state, vector"
vector 59 Scenario.node[14].wlan[0].mac.dcf.recoveryProcedure contentionWindowChanged:vector ETV
attr interpolationmode sample-hold
attr title "contention window, vector"
vector 60 Scenario.node[15].wlan[0].radio radioMode:vector ETV
attr interpolationmode sample-hold
attr source radioModeChanged
attr title "Radio mode, vector"
vector 61 Scenario.node[15].wlan[0].radio radioChannel:vector ETV
attr interpolationmode sample-hold
attr source radioChannelChanged
attr title "Radio channel, vector"
vector 62 Scenario.node[15].wlan[0].radio receptionState:vector ETV
attr interpolationmode sample-hold
attr source receptionStateChanged
attr title "Radio reception state, vector"
vector 63 Scenario.node[15].wlan[0].mac.dcf.recoveryProcedure contentionWindowChanged:vector ETV
attr interpolationmode sample-hold
attr title "contention window, vector"
vector 64 Scenario.node[16].wlan[0].radio radioMode:vector ETV
attr interpolationmode sample-hold
attr source radioModeChanged
attr title "Radio mode, vector"
vector 65 Scenario.node[16].wlan[0].radio radioChannel:vector ETV
attr interpolationmode sample-hold
attr source radioChannelChanged
attr title "Radio channel, vector"
vector 66 Scenario.node[16].wlan[0].radio receptionState:vector ETV
attr interpolationmode sample-hold
attr source receptionStateChanged
attr title "Radio reception state, vector"
vector 67 Scenario.node[16].wlan[0].mac.dcf.recoveryProcedure contentionWindowChanged:vector ETV
attr interpolationmode sample-hold
attr title "contention window, vector"
vector 68 Scenario.node[17].wlan[0].radio radioMode:vector ETV
attr interpolationmode sample-hold
attr source radioModeChanged
attr title "Radio mode, vector"
vector 69 Scenario.node[17].wlan[0].radio radioChannel:vector ETV
attr interpolationmode sample-hold
attr source radioChannelChanged
attr title "Radio channel, vector"
vector 70 Scenario.node[17].wlan[0].radio receptionState:vector ETV
attr interpolationmode sample-hold
attr source receptionStateChanged
attr title "Radio reception state, vector"
vector 71 Scenario.node[17].wlan[0].mac.dcf.recoveryProcedure contentionWindowChanged:vector ETV
attr interpolationmode sample-hold
attr title "contention window, vector"
vector 72 Scenario.node[18].wlan[0].radio radioMode:vector ETV
attr interpolationmode sample-hold
attr source radioModeChanged
attr title "Radio mode, vector"
vector 73 Scenario.node[18].wlan[0].radio radioChannel:vector ETV
attr interpolationmode sample-hold
attr source radioChannelChanged
attr title "Radio channel, vector"
vector 74 Scenario.node[18].wlan[0].radio receptionState:vector ETV
attr interpolationmode sample-hold
attr source receptionStateChanged
attr title "Radio reception state, vector"
vector 75 Scenario.node[18].wlan[0].mac.dcf.recoveryProcedure contentionWindowChanged:vector ETV
attr interpolationmode sample-hold
attr title "contention window, vector"
vector 76 Scenario.node[19].wlan[0].radio radioMode:vector ETV
attr interpolationmode sample-hold
attr source radioModeChanged
attr title "Radio mode, vector"
vector 77 Scenario.node[19].wlan[0].radio radioChannel:vector ETV
attr interpolationmode sample-hold
attr source radioChannelChanged
attr title "Radio channel, vector"
vector 78 Scenario.node[19].wlan[0].radio receptionState:vector ETV
attr interpolationmode sample-hold
attr source receptionStateChanged
attr title "Radio reception state, vector"
vector 79 Scenario.node[19].wlan[0].mac.dcf.recoveryProcedure contentionWindowChanged:vector ETV
attr interpolationmode sample-hold
attr title "contention window, vector"
vector 80 Scenario.node[20].wlan[0].radio radioMode:vector ETV
attr interpolationmode sample-hold
attr source radioModeChanged
attr title "Radio mode, vector"
vector 81 Scenario.node[20].wlan[0].radio radioChannel:vector ETV
attr interpolationmode sample-hold
attr source radioChannelChanged
attr title "Radio channel, vector"
vector 82 Scenario.node[20].wlan[0].radio receptionState:vector ETV
attr interpolationmode sample-hold
attr source receptionStateChanged
attr title "Radio reception state, vector"
vector 83 Scenario.node[20].wlan[0].mac.dcf.recoveryProcedure contentionWindowChanged:vector ETV
attr interpolationmode sample-hold
attr title "contention window, vector"
vector 84 Scenario.node[21].wlan[0].radio radioMode:vector ETV
attr interpolationmode sample-hold
attr source radioModeChanged
attr title "Radio mode, vector"
vector 85 Scenario.node[21].wlan[0].radio radioChannel:vector ETV
attr interpolationmode sample-hold
attr source radioChannelChanged
attr title "Radio channel, vector"
vector 86 Scenario.node[21].wlan[0].radio receptionState:vector ETV
attr interpolationmode sample-hold
attr source receptionStateChanged
attr title "Radio reception state, vector"
vector 87 Scenario.node[21].wlan[0].mac.dcf.recoveryProcedure contentionWindowChanged:vector ETV
attr interpolationmode sample-hold
attr title "contention window, vector"
vector 88 Scenario.node[22].wlan[0].radio radioMode:vector ETV
attr interpolationmode sample-hold
attr source radioModeChanged
attr title "Radio mode, vector"
vector 89 Scenario.node[22].wlan[0].radio radioChannel:vector ETV
attr interpolationmode sample-hold
attr source radioChannelChanged
attr title "Radio channel, vector"
vector 90 Scenario.node[22].wlan[0].radio receptionState:vector ETV
attr interpolationmode sample-hold
attr source receptionStateChanged
attr title "Radio reception state, vector"
vector 91 Scenario.node[22].wlan[0].mac.dcf.recoveryProcedure contentionWindowChanged:vector ETV
attr interpolationmode sample-hold
attr title "contention window, vector"
vector 92 Scenario.node[23].wlan[0].radio radioMode:vector ETV
attr interpolationmode sample-hold
attr source radioModeChanged
attr title "Radio mode, vector"
vector 93 Scenario.node[23].wlan[0].radio radioChannel:vector ETV
attr interpolationmode sample-hold
attr source radioChannelChanged
attr title "Radio channel, vector"
vector 94 Scenario.node[23].wlan[0].radio receptionState:vector ETV
attr interpolationmode sample-hold
attr source receptionStateChanged
attr title "Radio reception state, vector"
vector 95 Scenario.node[23].wlan[0].mac.dcf.recoveryProcedure contentionWindowChanged:vector ETV
attr interpolationmode sample-hold
attr title "contention window, vector"
vector 96 Scenario.node[24].wlan[0].radio radioMode:vector ETV
attr interpolationmode sample-hold
attr source radioModeChanged
attr title "Radio mode, vector"
vector 97 Scenario.node[24].wlan[0].radio radioChannel:vector ETV
attr interpolationmode sample-hold
attr source radioChannelChanged
attr title "Radio channel, vector"
vector 98 Scenario.node[24].wlan[0].radio receptionState:vector ETV
attr interpolationmode sample-hold
attr source receptionStateChanged
attr title "Radio reception state, vector"
vector 99 Scenario.node[24].wlan[0].mac.dcf.recoveryProcedure contentionWindowChanged:vector ETV
attr interpolationmode sample-hold
attr title "contention window, vector"
vector 100 Scenario.node[25].wlan[0].radio radioMode:vector ETV
attr interpolationmode sample-hold
attr source radioModeChanged
attr title "Radio mode, vector"
vector 101 Scenario.node[25].wlan[0].radio radioChannel:vector ETV
attr interpolationmode sample-hold
attr source radioChannelChanged
attr title "Radio channel, vector"
vector 102 Scenario.node[25].wlan[0].radio receptionState:vector ETV
attr interpolationmode sample-hold
attr source receptionStateChanged
attr title "Radio reception state, vector"
vector 103 Scenario.node[25].wlan[0].mac.dcf.recoveryProcedure contentionWindowChanged:vector ETV
attr interpolationmode sample-hold
attr title "contention window, vector"
vector 104 Scenario.node[26].wlan[0].radio radioMode:vector ETV
attr interpolationmode sample-hold
attr source radioModeChanged
attr title "Radio mode, vector"
vector 105 Scenario.node[26].wlan[0].radio radioChannel:vector ETV
attr interpolationmode sample-hold
attr source radioChannelChanged
attr title "Radio channel, vector"
vector 106 Scenario.node[26].wlan[0].radio receptionState:vector ETV
attr interpolationmode sample-hold
attr source receptionStateChanged
attr title "Radio reception state, vector"
vector 107 Scenario.node[26].wlan[0].mac.dcf.recoveryProcedure contentionWindowChanged:vector ETV
attr interpolationmode sample-hold
attr title "contention window, vector"
vector 108 Scenario.node[27].wlan[0].radio radioMode:vector ETV
attr interpolationmode sample-hold
attr source radioModeChanged
attr title "Radio mode, vector"
vector 109 Scenario.node[27].wlan[0].radio radioChannel:vector ETV
attr interpolationmode sample-hold
attr source radioChannelChanged
attr title "Radio channel, vector"
vector 110 Scenario.node[27].wlan[0].radio receptionState:vector ETV
attr interpolationmode sample-hold
attr source receptionStateChanged
attr title "Radio reception state, vector"
vector 111 Scenario.node[27].wlan[0].mac.dcf.recoveryProcedure contentionWindowChanged:vector ETV
attr interpolationmode sample-hold
attr title "contention window, vector"
vector 112 Scenario.node[28].wlan[0].radio radioMode:vector ETV
attr interpolationmode sample-hold
attr source radioModeChanged
attr title "Radio mode, vector"
vector 113 Scenario.node[28].wlan[0].radio radioChannel:vector ETV
attr interpolationmode sample-hold
attr source radioChannelChanged
attr title "Radio channel, vector"
vector 114 Scenario.node[28].wlan[0].radio receptionState:vector ETV
attr interpolationmode sample-hold
attr source receptionStateChanged
attr title "Radio reception state, vector"
vector 115 Scenario.node[28].wlan[0].mac.dcf.recoveryProcedure contentionWindowChanged:vector ETV
attr interpolationmode sample-hold
attr title "contention window, vector"
vector 116 Scenario.node[29].wlan[0].radio radioMode:vector ETV
attr interpolationmode sample-hold
attr source radioModeChanged
attr title "Radio mode, vector"
vector 117 Scenario.node[29].wlan[0].radio radioChannel:vector ETV
attr interpolationmode sample-hold
attr source radioChannelChanged
attr title "Radio channel, vector"
vector 118 Scenario.node[29].wlan[0].radio receptionState:vector ETV
attr interpolationmode sample-hold
attr source receptionStateChanged
attr title "Radio reception state, vector"
vector 119 Scenario.node[29].wlan[0].mac.dcf.recoveryProcedure contentionWindowChanged:vector ETV
attr interpolationmode sample-hold
attr title "contention window, vector"
vector 120 Scenario.node[30].wlan[0].radio radioMode:vector ETV
attr interpolationmode sample-hold
attr source radioModeChanged
attr title "Radio mode, vector"
vector 121 Scenario.node[30].wlan[0].radio radioChannel:vector ETV
attr interpolationmode sample-hold
attr source radioChannelChanged
attr title "Radio channel, vector"
vector 122 Scenario.node[30].wlan[0].radio receptionState:vector ETV
attr interpolationmode sample-hold
attr source receptionStateChanged
attr title "Radio reception state, vector"
vector 123 Scenario.node[30].wlan[0].mac.dcf.recoveryProcedure contentionWindowChanged:vector ETV
attr interpolationmode sample-hold
attr title "contention window, vector"
vector 124 Scenario.node[0].app[0] packetSent:vector(packetBytes) ETV
attr interpolationmode none
attr source packetSent
attr title "packets sent, vector(packetBytes)"
vector 125 Scenario.node[0].udp packetSent:vector(packetBytes) ETV
attr interpolationmode none
attr source packetSent
attr title "packets sent, vector(packetBytes)"
vector 126 Scenario.node[0].lo[0].lo rcvdPkFromHl:vector(packetBytes) ETV
attr interpolationmode none
attr source packetReceivedFromUpper
attr title "packets received from higher layer, vector(packetBytes)"
vector 127 Scenario.node[0].lo[0].lo passedUpPk:vector(packetBytes) ETV
attr interpolationmode none
attr source packetSentToUpper
attr title "packets passed to higher layer, vector(packetBytes)"
vector 128 Scenario.node[0].wlan[0].mac packetReceivedFromUpper:vector(packetBytes) ETV
attr interpolationmode none
attr title "packets received from upper layer, vector(packetBytes)"
vector 129 Scenario.node[0].wlan[0].mac.dcf.channelAccess.pendingQueue packetPushed:vector(packetBytes) ETV
attr interpolationmode none
attr title "packet pushed, vector(packetBytes)"
vector 130 Scenario.node[0].wlan[0].mac.dcf.channelAccess.pendingQueue queueLength:vector ETV
attr interpolationmode sample-hold
attr source "count(packetPushed) - count(packetPopped) - count(packetRemoved) - count(packetDropped)"
attr title "queue length, vector"
vector 131 Scenario.node[0].wlan[0].mac.dcf.channelAccess.contention backoffPeriodGenerated:vector ETV
attr interpolationmode none
attr title "backoff periods, vector"
vector 132 Scenario.node[0].wlan[0].mac.dcf.channelAccess.contention backoffActive:vector ETV
attr interpolationmode sample-hold
attr source count(backoffStarted)-count(backoffStopped)
attr title "backoff active, vector"
vector 133 Scenario.node[0].udp packetReceived:vector(packetBytes) ETV
attr interpolationmode none
attr source packetReceived
attr title "packets received, vector(packetBytes)"
vector 134 Scenario.node[0].udp passedUpPk:vector(count) ETV
attr interpolationmode none
attr source packetSentToUpper
attr title "packets passed up, vector(count)"
vector 135 Scenario.node[0].app[0] packetReceived:vector(packetBytes) ETV
attr interpolationmode none
attr source packetReceived
attr title "packets received, vector(packetBytes)"
vector 136 Scenario.node[0].app[0] throughput:vector ETV
attr source throughput(packetReceived)
attr title "throughput, vector"
attr unit bps
vector 137 Scenario.node[0].app[0] rcvdPkLifetime:vector ETV
attr interpolationmode none
attr source dataAge(packetReceived)
attr title "received packet lifetime, vector"
attr unit s
vector 138 Scenario.node[0].wlan[0].mac.dcf.channelAccess.pendingQueue packetPopped:vector(packetBytes) ETV
attr interpolationmode none
attr title "packet popped, vector(packetBytes)"
vector 139 Scenario.node[0].wlan[0].mac.dcf.channelAccess.pendingQueue queueingTime:vector ETV
attr interpolationmode none
attr source queueingTime(packetPopped)
attr title "queueing times, vector"
attr unit s
vector 140 Scenario.node[0].wlan[0].mac.dcf.channelAccess.inProgressFrames queueLength:vector ETV
attr interpolationmode sample-hold
attr source "count(packetEnqueued) - count(packetDequeued)"
attr title "queue length, vector"
vector 141 Scenario.node[0].wlan[0].mac.dcf datarateSelected:vector ETV
attr interpolationmode none
attr title "datarates selected, vector"
vector 142 Scenario.node[0].wlan[0].mac packetSentToLower:vector(packetBytes) ETV
attr interpolationmode none
attr title "packets sent to lower layer, vector(packetBytes)"
vector 143 Scenario.node[0].wlan[0].mac.dcf frameSequenceActive:vector ETV
attr interpolationmode sample-hold
attr source count(frameSequenceStarted)-count(frameSequenceFinished)
attr title "frame sequence active, vector"
vector 144 Scenario.node[0].wlan[0].radio transmissionState:vector ETV
attr interpolationmode sample-hold
attr source transmissionStateChanged
attr title "Radio transmission state, vector"
vector 145 Scenario.node[0].wlan[0].mac.dcf packetSentToPeer:vector(packetBytes) ETV
attr interpolationmode none
attr title "packets sent, vector(packetBytes)"
vector 146 Scenario.node[0].wlan[0].mac.dcf packetSentToPeerMulticast:vector(packetBytes) ETV
attr interpolationmode none
attr source ieee80211Multicast(packetSentToPeer)
attr title "packets sent: multicast, vector(packetBytes)"
vector 147 Scenario.node[0].wlan[0].mac.dcf packetSentToPeerWithoutRetry:vector(packetBytes) ETV
attr interpolationmode none
attr source ieee80211NotRetry(packetSentToPeer)
attr title "packets sent: without retry, vector(packetBytes)"
vector 148 Scenario.node[0].wlan[0].mac.dcf.channelAccess.inProgressFrames queueingTime:vector ETV
attr interpolationmode none
attr source queueingTime(packetDequeued)
attr title "queueing times, vector"
vector 149 Scenario.node[25].wlan[0].mac packetReceivedFromLower:vector(packetBytes) ETV
attr interpolationmode none
attr title "packets received from lower layer, vector(packetBytes)"
vector 150 Scenario.node[25].wlan[0].mac.dcf packetReceivedFromPeer:vector(packetBytes) ETV
attr interpolationmode none
attr title "packets received, vector(packetBytes)"
vector 151 Scenario.node[25].wlan[0].mac.dcf packetReceivedFromPeerMulticast:vector(packetBytes) ETV
attr interpolationmode none
attr source ieee80211Multicast(packetReceivedFromPeer)
attr title "packets received: multicast, vector(packetBytes)"
vector 152 Scenario.node[25].wlan[0].mac.dcf packetReceivedFromPeerWithoutRetry:vector(packetBytes) ETV
attr interpolationmode none
attr source ieee80211NotRetry(packetReceivedFromPeer)
attr title "packets received: without retry, vector(packetBytes)"
vector 153 Scenario.node[25].wlan[0].mac packetSentToUpper:vector(packetBytes) ETV
attr interpolationmode none
attr title "packets sent to upper layer, vector(packetBytes)"
vector 154 Scenario.node[25].udp packetReceived:vector(packetBytes) ETV
attr interpolationmode none
attr source packetReceived
attr title "packets received, vector(packetBytes)"
vector 155 Scenario.node[25].udp passedUpPk:vector(count) ETV
attr interpolationmode none
attr source packetSentToUpper
attr title "packets passed up, vector(count)"
vector 156 Scenario.node[25].app[0] packetReceived:vector(packetBytes) ETV
attr interpolationmode none
attr source packetReceived
attr title "packets received, vector(packetBytes)"
vector 157 Scenario.node[25].app[0] throughput:vector ETV
attr source throughput(packetReceived)
attr title "throughput, vector"
attr unit bps
vector 158 Scenario.node[25].app[0] rcvdPkLifetime:vector ETV
attr interpolationmode none
attr source dataAge(packetReceived)
attr title "received packet lifetime, vector"
attr unit s
vector 159 Scenario.node[25].app[0] packetSent:vector(packetBytes) ETV
attr interpolationmode none
attr source packetSent
attr title "packets sent, vector(packetBytes)"
vector 160 Scenario.node[25].udp packetSent:vector(packetBytes) ETV
attr interpolationmode none
attr source packetSent
attr title "packets sent, vector(packetBytes)"
vector 161 Scenario.node[25].lo[0].lo rcvdPkFromHl:vector(packetBytes) ETV
attr interpolationmode none
attr source packetReceivedFromUpper
attr title "packets received from higher layer, vector(packetBytes)"
vector 162 Scenario.node[25].lo[0].lo passedUpPk:vector(packetBytes) ETV
attr interpolationmode none
attr source packetSentToUpper
attr title "packets passed to higher layer, vector(packetBytes)"
vector 163 Scenario.node[25].wlan[0].mac packetReceivedFromUpper:vector(packetBytes) ETV
attr interpolationmode none
attr title "packets received from upper layer, vector(packetBytes)"
vector 164 Scenario.node[25].wlan[0].mac.dcf.channelAccess.pendingQueue packetPushed:vector(packetBytes) ETV
attr interpolationmode none
attr title "packet pushed, vector(packetBytes)"
vector 165 Scenario.node[25].wlan[0].mac.dcf.channelAccess.pendingQueue queueLength:vector ETV
attr interpolationmode sample-hold
attr source "count(packetPushed) - count(packetPopped) - count(packetRemoved) - count(packetDropped)"
attr title "queue length, vector"
vector 166 Scenario.node[25].wlan[0].mac.dcf.channelAccess.contention backoffPeriodGenerated:vector ETV
attr interpolationmode none
attr title "backoff periods, vector"
vector 167 Scenario.node[25].wlan[0].mac.dcf.channelAccess.contention backoffActive:vector ETV
attr interpolationmode sample-hold
attr source count(backoffStarted)-count(backoffStopped)
attr title "backoff active, vector"
vector 168 Scenario.node[24].wlan[0].mac packetReceivedFromLower:vector(packetBytes) ETV
attr interpolationmode none
attr title "packets received from lower layer, vector(packetBytes)"
vector 169 Scenario.node[24].wlan[0].mac.dcf packetReceivedFromPeer:vector(packetBytes) ETV
attr interpolationmode none
attr title "packets received, vector(packetBytes)"
vector 170 Scenario.node[24].wlan[0].mac.dcf packetReceivedFromPeerMulticast:vector(packetBytes) ETV
attr interpolationmode none
attr source ieee80211Multicast(packetReceivedFromPeer)
attr title "packets received: multicast, vector(packetBytes)"
vector 171 Scenario.node[24].wlan[0].mac.dcf packetReceivedFromPeerWithoutRetry:vector(packetBytes) ETV
attr interpolationmode none
attr source ieee80211NotRetry(packetReceivedFromPeer)
attr title "packets received: without retry, vector(packetBytes)"
vector 172 Scenario.node[24].wlan[0].mac packetSentToUpper:vector(packetBytes) ETV
attr interpolationmode none
attr title "packets sent to upper layer, vector(packetBytes)"
vector 173 Scenario.node[24].udp packetReceived:vector(packetBytes) ETV
attr interpolationmode none
attr source packetReceived
attr title "packets received, vector(packetBytes)"
vector 174 Scenario.node[24].udp passedUpPk:vector(count) ETV
attr interpolationmode none
attr source packetSentToUpper
attr title "packets passed up, vector(count)"
vector 175 Scenario.node[24].app[0] packetReceived:vector(packetBytes) ETV
attr interpolationmode none
attr source packetReceived
attr title "packets received, vector(packetBytes)"
vector 176 Scenario.node[24].app[0] throughput:vector ETV
attr source throughput(packetReceived)
attr title "throughput, vector"
attr unit bps
vector 177 Scenario.node[24].app[0] rcvdPkLifetime:vector ETV
attr interpolationmode none
attr source dataAge(packetReceived)
attr title "received packet lifetime, vector"
attr unit s
vector 178 Scenario.node[24].app[0] packetSent:vector(packetBytes) ETV
attr interpolationmode none
attr source packetSent
attr title "packets sent, vector(packetBytes)"
vector 179 Scenario.node[24].udp packetSent:vector(packetBytes) ETV
attr interpolationmode none
attr source packetSent
attr title "packets sent, vector(packetBytes)"
vector 180 Scenario.node[24].lo[0].lo rcvdPkFromHl:vector(packetBytes) ETV
attr interpolationmode none
attr source packetReceivedFromUpper
attr title "packets received from higher layer, vector(packetBytes)"
vector 181 Scenario.node[24].lo[0].lo passedUpPk:vector(packetBytes) ETV
attr interpolationmode none
attr source packetSentToUpper
attr title "packets passed to higher layer, vector(packetBytes)"
vector 182 Scenario.node[24].wlan[0].mac packetReceivedFromUpper:vector(packetBytes) ETV
attr interpolationmode none
attr title "packets received from upper layer, vector(packetBytes)"
vector 183 Scenario.node[24].wlan[0].mac.dcf.channelAccess.pendingQueue packetPushed:vector(packetBytes) ETV
attr interpolationmode none
attr title "packet pushed, vector(packetBytes)"
vector 184 Scenario.node[24].wlan[0].mac.dcf.channelAccess.pendingQueue queueLength:vector ETV
attr interpolationmode sample-hold
attr source "count(packetPushed) - count(packetPopped) - count(packetRemoved) - count(packetDropped)"
attr title "queue length, vector"
vector 185 Scenario.node[24].wlan[0].mac.dcf.channelAccess.contention backoffPeriodGenerated:vector ETV
attr interpolationmode none
attr title "backoff periods, vector"
vector 186 Scenario.node[24].wlan[0].mac.dcf.channelAccess.contention backoffActive:vector ETV
attr interpolationmode sample-hold
attr source count(backoffStarted)-count(backoffStopped)
attr title "backoff active, vector"
vector 187 Scenario.node[22].wlan[0].mac packetReceivedFromLower:vector(packetBytes) ETV
attr interpolationmode none
attr title "packets received from lower layer, vector(packetBytes)"
vector 188 Scenario.node[22].wlan[0].mac.dcf packetReceivedFromPeer:vector(packetBytes) ETV
attr interpolationmode none
attr title "packets received, vector(packetBytes)"
vector 189 Scenario.node[22].wlan[0].mac.dcf packetReceivedFromPeerMulticast:vector(packetBytes) ETV
attr interpolationmode none
attr source ieee80211Multicast(packetReceivedFromPeer)
attr title "packets received: multicast, vector(packetBytes)"
vector 190 Scenario.node[22].wlan[0].mac.dcf packetReceivedFromPeerWithoutRetry:vector(packetBytes) ETV
attr interpolationmode none
attr source ieee80211NotRetry(packetReceivedFromPeer)
attr title "packets received: without retry, vector(packetBytes)"
vector 191 Scenario.node[22].wlan[0].mac packetSentToUpper:vector(packetBytes) ETV
attr interpolationmode none
attr title "packets sent to upper layer, vector(packetBytes)"
vector 192 Scenario.node[22].udp packetReceived:vector(packetBytes) ETV
attr interpolationmode none
attr source packetReceived
attr title "packets received, vector(packetBytes)"
vector 193 Scenario.node[22].udp passedUpPk:vector(count) ETV
attr interpolationmode none
attr source packetSentToUpper
attr title "packets passed up, vector(count)"
vector 194 Scenario.node[22].app[0] packetReceived:vector(packetBytes) ETV
attr interpolationmode none
attr source packetReceived
attr title "packets received, vector(packetBytes)"
vector 195 Scenario.node[22].app[0] throughput:vector ETV
attr source throughput(packetReceived)
attr title "throughput, vector"
attr unit bps
vector 196 Scenario.node[22].app[0] rcvdPkLifetime:vector ETV
attr interpolationmode none
attr source dataAge(packetReceived)
attr title "received packet lifetime, vector"
attr unit s
vector 197 Scenario.node[22].app[0] packetSent:vector(packetBytes) ETV
attr interpolationmode none
attr source packetSent
attr title "packets sent, vector(packetBytes)"
vector 198 Scenario.node[22].udp packetSent:vector(packetBytes) ETV
attr interpolationmode none
attr source packetSent
attr title "packets sent, vector(packetBytes)"
vector 199 Scenario.node[22].lo[0].lo rcvdPkFromHl:vector(packetBytes) ETV
attr interpolationmode none
attr source packetReceivedFromUpper
attr title "packets received from higher layer, vector(packetBytes)"
vector 200 Scenario.node[22].lo[0].lo passedUpPk:vector(packetBytes) ETV
attr interpolationmode none
attr source packetSentToUpper
attr title "packets passed to higher layer, vector(packetBytes)"
vector 201 Scenario.node[22].wlan[0].mac packetReceivedFromUpper:vector(packetBytes) ETV
attr interpolationmode none
attr title "packets received from upper layer, vector(packetBytes)"
vector 202 Scenario.node[22].wlan[0].mac.dcf.channelAccess.pendingQueue packetPushed:vector(packetBytes) ETV
attr interpolationmode none
attr title "packet pushed, vector(packetBytes)"
vector 203 Scenario.node[22].wlan[0].mac.dcf.channelAccess.pendingQueue queueLength:vector ETV
attr interpolationmode sample-hold
attr source "count(packetPushed) - count(packetPopped) - count(packetRemoved) - count(packetDropped)"
attr title "queue length, vector"
vector 204 Scenario.node[22].wlan[0].mac.dcf.channelAccess.contention backoffPeriodGenerated:vector ETV
attr interpolationmode none
attr title "backoff periods, vector"
vector 205 Scenario.node[22].wlan[0].mac.dcf.channelAccess.contention backoffActive:vector ETV
attr interpolationmode sample-hold
attr source count(backoffStarted)-count(backoffStopped)
attr title "backoff active, vector"
vector 206 Scenario.node[15].wlan[0].mac packetReceivedFromLower:vector(packetBytes) ETV
attr interpolationmode none
attr title "packets received from lower layer, vector(packetBytes)"
vector 207 Scenario.node[15].wlan[0].mac.dcf packetReceivedFromPeer:vector(packetBytes) ETV
attr interpolationmode none
attr title "packets received, vector(packetBytes)"
vector 208 Scenario.node[15].wlan[0].mac.dcf packetReceivedFromPeerMulticast:vector(packetBytes) ETV
attr interpolationmode none
attr source ieee80211Multicast(packetReceivedFromPeer)
attr title "packets received: multicast, vector(packetBytes)"
vector 209 Scenario.node[15].wlan[0].mac.dcf packetReceivedFromPeerWithoutRetry:vector(packetBytes) ETV
attr interpolationmode none
attr source ieee80211NotRetry(packetReceivedFromPeer)
attr title "packets received: without retry, vector(packetBytes)"
vector 210 Scenario.node[15].wlan[0].mac packetSentToUpper:vector(packetBytes) ETV
attr interpolationmode none
attr title "packets sent to upper layer, vector(packetBytes)"
vector 211 Scenario.node[15].udp packetReceived:vector(packetBytes) ETV
attr interpolationmode none
attr source packetReceived
attr title "packets received, vector(packetBytes)"
vector 212 Scenario.node[15].udp passedUpPk:vector(count) ETV
attr interpolationmode none
attr source packetSentToUpper
attr title "packets passed up, vector(count)"
vector 213 Scenario.node[15].app[0] packetReceived:vector(packetBytes) ETV
attr interpolationmode none
attr source packetReceived
attr title "packets received, vector(packetBytes)"
vector 214 Scenario.node[15].app[0] throughput:vector ETV
attr source throughput(packetReceived)
attr title "throughput, vector"
attr unit bps
vector 215 Scenario.node[15].app[0] rcvdPkLifetime:vector ETV
attr interpolationmode none
attr source dataAge(packetReceived)
attr title "received packet lifetime, vector"
attr unit s
vector 216 Scenario.node[15].app[0] packetSent:vector(packetBytes) ETV
attr interpolationmode none
attr source packetSent
attr title "packets sent, vector(packetBytes)"
vector 217 Scenario.node[15].udp packetSent:vector(packetBytes) ETV
attr interpolationmode none
attr source packetSent
attr title "packets sent, vector(packetBytes)"
vector 218 Scenario.node[15].lo[0].lo rcvdPkFromHl:vector(packetBytes) ETV
attr interpolationmode none
attr source packetReceivedFromUpper
attr title "packets received from higher layer, vector(packetBytes)"
vector 219 Scenario.node[15].lo[0].lo passedUpPk:vector(packetBytes) ETV
attr interpolationmode none
attr source packetSentToUpper
attr title "packets passed to higher layer, vector(packetBytes)"
vector 220 Scenario.node[15].wlan[0].mac packetReceivedFromUpper:vector(packetBytes) ETV
attr interpolationmode none
attr title "packets received from upper layer, vector(packetBytes)"
vector 221 Scenario.node[15].wlan[0].mac.dcf.channelAccess.pendingQueue packetPushed:vector(packetBytes) ETV
attr interpolationmode none
attr title "packet pushed, vector(packetBytes)"
vector 222 Scenario.node[15].wlan[0].mac.dcf.channelAccess.pendingQueue queueLength:vector ETV
attr interpolationmode sample-hold
attr source "count(packetPushed) - count(packetPopped) - count(packetRemoved) - count(packetDropped)"
attr title "queue length, vector"
vector 223 Scenario.node[15].wlan[0].mac.dcf.channelAccess.contention backoffPeriodGenerated:vector ETV
attr interpolationmode none
attr title "backoff periods, vector"
vector 224 Scenario.node[15].wlan[0].mac.dcf.channelAccess.contention backoffActive:vector ETV
attr interpolationmode sample-hold
attr source count(backoffStarted)-count(backoffStopped)
attr title "backoff active, vector"
vector 225 Scenario.node[6].wlan[0].mac packetReceivedFromLower:vector(packetBytes) ETV
attr interpolationmode none
attr title "packets received from lower layer, vector(packetBytes)"
vector 226 Scenario.node[6].wlan[0].mac.dcf packetReceivedFromPeer:vector(packetBytes) ETV
attr interpolationmode none
attr title "packets received, vector(packetBytes)"
vector 227 Scenario.node[6].wlan[0].mac.dcf packetReceivedFromPeerMulticast:vector(packetBytes) ETV
attr interpolationmode none
attr source ieee80211Multicast(packetReceivedFromPeer)
attr title "packets received: multicast, vector(packetBytes)"
vector 228 Scenario.node[6].wlan[0].mac.dcf packetReceivedFromPeerWithoutRetry:vector(packetBytes) ETV
attr interpolationmode none
attr source ieee80211NotRetry(packetReceivedFromPeer)
attr title "packets received: without retry, vector(packetBytes)"
vector 229 Scenario.node[6].wlan[0].mac packetSentToUpper:vector(packetBytes) ETV
attr interpolationmode none
attr title "packets sent to upper layer, vector(packetBytes)"
vector 230 Scenario.node[6].udp packetReceived:vector(packetBytes) ETV
attr interpolationmode none
attr source packetReceived
attr title "packets received, vector(packetBytes)"
vector 231 Scenario.node[6].udp passedUpPk:vector(count) ETV
attr interpolationmode none
attr source packetSentToUpper
attr title "packets passed up, vector(count)"
vector 232 Scenario.node[6].app[0] packetReceived:vector(packetBytes) ETV
attr interpolationmode none
attr source packetReceived
attr title "packets received, vector(packetBytes)"
vector 233 Scenario.node[6].app[0] throughput:vector ETV
attr source throughput(packetReceived)
attr title "throughput, vector"
attr unit bps
vector 234 Scenario.node[6].app[0] rcvdPkLifetime:vector ETV
attr interpolationmode none
attr source dataAge(packetReceived)
attr title "received packet lifetime, vector"
attr unit s
vector 235 Scenario.node[6].app[0] packetSent:vector(packetBytes) ETV
attr interpolationmode none
attr source packetSent
attr title "packets sent, vector(packetBytes)"
vector 236 Scenario.node[6].udp packetSent:vector(packetBytes) ETV
attr interpolationmode none
attr source packetSent
attr title "packets sent, vector(packetBytes)"
vector 237 Scenario.node[6].lo[0].lo rcvdPkFromHl:vector(packetBytes) ETV
attr interpolationmode none
attr source packetReceivedFromUpper
attr title "packets received from higher layer, vector(packetBytes)"
vector 238 Scenario.node[6].lo[0].lo passedUpPk:vector(packetBytes) ETV
attr interpolationmode none
attr source packetSentToUpper
attr title "packets passed to higher layer, vector(packetBytes)"
vector 239 Scenario.node[6].wlan[0].mac packetReceivedFromUpper:vector(packetBytes) ETV
attr interpolationmode none
attr title "packets received from upper layer, vector(packetBytes)"
vector 240 Scenario.node[6].wlan[0].mac.dcf.channelAccess.pendingQueue packetPushed:vector(packetBytes) ETV
attr interpolationmode none
attr title "packet pushed, vector(packetBytes)"
vector 241 Scenario.node[6].wlan[0].mac.dcf.channelAccess.pendingQueue queueLength:vector ETV
attr interpolationmode sample-hold
attr source "count(packetPushed) - count(packetPopped) - count(packetRemoved) - count(packetDropped)"
attr title "queue length, vector"
vector 242 Scenario.node[6].wlan[0].mac.dcf.channelAccess.contention backoffPeriodGenerated:vector ETV
attr interpolationmode none
attr title "backoff periods, vector"
vector 243 Scenario.node[6].wlan[0].mac.dcf.channelAccess.contention backoffActive:vector ETV
attr interpolationmode sample-hold
attr source count(backoffStarted)-count(backoffStopped)
attr title "backoff active, vector"
vector 244 Scenario.node[4].wlan[0].mac packetReceivedFromLower:vector(packetBytes) ETV
attr interpolationmode none
attr title "packets received from lower layer, vector(packetBytes)"
vector 245 Scenario.node[4].wlan[0].mac.dcf packetReceivedFromPeer:vector(packetBytes) ETV
attr interpolationmode none
attr title "packets received, vector(packetBytes)"
vector 246 Scenario.node[4].wlan[0].mac.dcf packetReceivedFromPeerMulticast:vector(packetBytes) ETV
attr interpolationmode none
attr source ieee80211Multicast(packetReceivedFromPeer)
attr title "packets received: multicast, vector(packetBytes)"
vector 247 Scenario.node[4].wlan[0].mac.dcf packetReceivedFromPeerWithoutRetry:vector(packetBytes) ETV
attr interpolationmode none
attr source ieee80211NotRetry(packetReceivedFromPeer)
attr title "packets received: without retry, vector(packetBytes)"
vector 248 Scenario.node[4].wlan[0].mac packetSentToUpper:vector(packetBytes) ETV
attr interpolationmode none
attr title "packets sent to upper layer, vector(packetBytes)"
vector 249 Scenario.node[4].udp packetReceived:vector(packetBytes) ETV
attr interpolationmode none
attr source packetReceived
attr title "packets received, vector(packetBytes)"
vector 250 Scenario.node[4].udp passedUpPk:vector(count) ETV
attr interpolationmode none
attr source packetSentToUpper
attr title "packets passed up, vector(count)"
vector 251 Scenario.node[4].app[0] packetReceived:vector(packetBytes) ETV
attr interpolationmode none
attr source packetReceived
attr title "packets received, vector(packetBytes)"
vector 252 Scenario.node[4].app[0] throughput:vector ETV
attr source throughput(packetReceived)
attr title "throughput, vector"
attr unit bps
vector 253 Scenario.node[4].app[0] rcvdPkLifetime:vector ETV
attr interpolationmode none
attr source dataAge(packetReceived)
attr title "received packet lifetime, vector"
attr unit s
vector 254 Scenario.node[4].app[0] packetSent:vector(packetBytes) ETV
attr interpolationmode none
attr source packetSent
attr title "packets sent, vector(packetBytes)"
vector 255 Scenario.node[4].udp packetSent:vector(packetBytes) ETV
attr interpolationmode none
attr source packetSent
attr title "packets sent, vector(packetBytes)"
vector 256 Scenario.node[4].lo[0].lo rcvdPkFromHl:vector(packetBytes) ETV
attr interpolationmode none
attr source packetReceivedFromUpper
attr title "packets received from higher layer, vector(packetBytes)"
vector 257 Scenario.node[4].lo[0].lo passedUpPk:vector(packetBytes) ETV
attr interpolationmode none
attr source packetSentToUpper
attr title "packets passed to higher layer, vector(packetBytes)"
vector 258 Scenario.node[4].wlan[0].mac packetReceivedFromUpper:vector(packetBytes) ETV
attr interpolationmode none
attr title "packets received from upper layer, vector(packetBytes)"
vector 259 Scenario.node[4].wlan[0].mac.dcf.channelAccess.pendingQueue packetPushed:vector(packetBytes) ETV
attr interpolationmode none
attr title "packet pushed, vector(packetBytes)"
vector 260 Scenario.node[4].wlan[0].mac.dcf.channelAccess.pendingQueue queueLength:vector ETV
attr interpolationmode sample-hold
attr source "count(packetPushed) - count(packetPopped) - count(packetRemoved) - count(packetDropped)"
attr title "queue length, vector"
vector 261 Scenario.node[4].wlan[0].mac.dcf.channelAccess.contention backoffPeriodGenerated:vector ETV
attr interpolationmode none
attr title "backoff periods, vector"
vector 262 Scenario.node[4].wlan[0].mac.dcf.channelAccess.contention backoffActive:vector ETV
attr interpolationmode sample-hold
attr source count(backoffStarted)-count(backoffStopped)
attr title "backoff active, vector"
vector 263 Scenario.node[25].wlan[0].mac.dcf.channelAccess.pendingQueue packetPopped:vector(packetBytes) ETV
attr interpolationmode none
attr title "packet popped, vector(packetBytes)"
vector 264 Scenario.node[25].wlan[0].mac.dcf.channelAccess.pendingQueue queueingTime:vector ETV
attr interpolationmode none
attr source queueingTime(packetPopped)
attr title "queueing times, vector"
attr unit s
vector 265 Scenario.node[25].wlan[0].mac.dcf.channelAccess.inProgressFrames queueLength:vector ETV
attr interpolationmode sample-hold
attr source "count(packetEnqueued) - count(packetDequeued)"
attr title "queue length, vector"
vector 266 Scenario.node[25].wlan[0].mac.dcf datarateSelected:vector ETV
attr interpolationmode none
attr title "datarates selected, vector"
vector 267 Scenario.node[25].wlan[0].mac packetSentToLower:vector(packetBytes) ETV
attr interpolationmode none
attr title "packets sent to lower layer, vector(packetBytes)"
vector 268 Scenario.node[25].wlan[0].mac.dcf frameSequenceActive:vector ETV
attr interpolationmode sample-hold
attr source count(frameSequenceStarted)-count(frameSequenceFinished)
attr title "frame sequence active, vector"
vector 269 Scenario.node[25].wlan[0].radio transmissionState:vector ETV
attr interpolationmode sample-hold
attr source transmissionStateChanged
attr title "Radio transmission state, vector"
vector 270 Scenario.node[4].wlan[0].mac.dcf.channelAccess.pendingQueue packetPopped:vector(packetBytes) ETV
attr interpolationmode none
attr title "packet popped, vector(packetBytes)"
vector 271 Scenario.node[4].wlan[0].mac.dcf.channelAccess.pendingQueue queueingTime:vector ETV
attr interpolationmode none
attr source queueingTime(packetPopped)
attr title "queueing times, vector"
attr unit s
vector 272 Scenario.node[4].wlan[0].mac.dcf.channelAccess.inProgressFrames queueLength:vector ETV
attr interpolationmode sample-hold
attr source "count(packetEnqueued) - count(packetDequeued)"
attr title "queue length, vector"
vector 273 Scenario.node[4].wlan[0].mac.dcf datarateSelected:vector ETV
attr interpolationmode none
attr title "datarates selected, vector"
vector 274 Scenario.node[4].wlan[0].mac packetSentToLower:vector(packetBytes) ETV
attr interpolationmode none
attr title "packets sent to lower layer, vector(packetBytes)"
vector 275 Scenario.node[4].wlan[0].mac.dcf frameSequenceActive:vector ETV
attr interpolationmode sample-hold
attr source count(frameSequenceStarted)-count(frameSequenceFinished)
attr title "frame sequence active, vector"
vector 276 Scenario.node[4].wlan[0].radio transmissionState:vector ETV
attr interpolationmode sample-hold
attr source transmissionStateChanged
attr title "Radio transmission state, vector"
vector 277 Scenario.node[25].wlan[0].mac.dcf packetSentToPeer:vector(packetBytes) ETV
attr interpolationmode none
attr title "packets sent, vector(packetBytes)"
vector 278 Scenario.node[25].wlan[0].mac.dcf packetSentToPeerMulticast:vector(packetBytes) ETV
attr interpolationmode none
attr source ieee80211Multicast(packetSentToPeer)
attr title "packets sent: multicast, vector(packetBytes)"
vector 279 Scenario.node[25].wlan[0].mac.dcf packetSentToPeerWithoutRetry:vector(packetBytes) ETV
attr interpolationmode none
attr source ieee80211NotRetry(packetSentToPeer)
attr title "packets sent: without retry, vector(packetBytes)"
vector 280 Scenario.node[25].wlan[0].mac.dcf.channelAccess.inProgressFrames queueingTime:vector ETV
attr interpolationmode none
attr source queueingTime(packetDequeued)
attr title "queueing times, vector"
vector 281 Scenario.node[0].wlan[0].mac packetReceivedFromLower:vector(packetBytes) ETV
attr interpolationmode none
attr title "packets received from lower layer, vector(packetBytes)"
vector 282 Scenario.node[0].wlan[0].mac.dcf packetReceivedFromPeer:vector(packetBytes) ETV
attr interpolationmode none
attr title "packets received, vector(packetBytes)"
vector 283 Scenario.node[0].wlan[0].mac.dcf packetReceivedFromPeerMulticast:vector(packetBytes) ETV
attr interpolationmode none
attr source ieee80211Multicast(packetReceivedFromPeer)
attr title "packets received: multicast, vector(packetBytes)"
vector 284 Scenario.node[0].wlan[0].mac.dcf packetReceivedFromPeerWithoutRetry:vector(packetBytes) ETV
attr interpolationmode none
attr source ieee80211NotRetry(packetReceivedFromPeer)
attr title "packets received: without retry, vector(packetBytes)"
vector 285 Scenario.node[0].wlan[0].mac packetSentToUpper:vector(packetBytes) ETV
attr interpolationmode none
attr title "packets sent to upper layer, vector(packetBytes)"
vector 286 Scenario.node[22].wlan[0].mac packetDrop:vector(packetBytes) ETV
attr interpolationmode none
attr source packetDropped
attr title "packet drops, vector(packetBytes)"
vector 287 Scenario.node[22].wlan[0].mac packetDropIncorrectlyReceived:vector(packetBytes) ETV
attr interpolationmode none
attr source packetDropReasonIsIncorrectlyReceived(packetDropped)
attr title "packet drops: incorrectly received, vector(packetBytes)"
vector 288 Scenario.node[24].wlan[0].mac packetDrop:vector(packetBytes) ETV
attr interpolationmode none
attr source packetDropped
attr title "packet drops, vector(packetBytes)"
vector 289 Scenario.node[24].wlan[0].mac packetDropIncorrectlyReceived:vector(packetBytes) ETV
attr interpolationmode none
attr source packetDropReasonIsIncorrectlyReceived(packetDropped)
attr title "packet drops: incorrectly received, vector(packetBytes)"
vector 290 Scenario.node[15].wlan[0].mac packetDrop:vector(packetBytes) ETV
attr interpolationmode none
attr source packetDropped
attr title "packet drops, vector(packetBytes)"
vector 291 Scenario.node[15].wlan[0].mac packetDropIncorrectlyReceived:vector(packetBytes) ETV
attr interpolationmode none
attr source packetDropReasonIsIncorrectlyReceived(packetDropped)
attr title "packet drops: incorrectly received, vector(packetBytes)"
vector 292 Scenario.node[6].wlan[0].mac packetDrop:vector(packetBytes) ETV
attr interpolationmode none
attr source packetDropped
attr title "packet drops, vector(packetBytes)"
vector 293 Scenario.node[6].wlan[0].mac packetDropIncorrectlyReceived:vector(packetBytes) ETV
attr interpolationmode none
attr source packetDropReasonIsIncorrectlyReceived(packetDropped)
attr title "packet drops: incorrectly received, vector(packetBytes)"
vector 294 Scenario.node[8].wlan[0].mac packetReceivedFromLower:vector(packetBytes) ETV
attr interpolationmode none
attr title "packets received from lower layer, vector(packetBytes)"
vector 295 Scenario.node[8].wlan[0].mac packetDrop:vector(packetBytes) ETV
attr interpolationmode none
attr source packetDropped
attr title "packet drops, vector(packetBytes)"
vector 296 Scenario.node[8].wlan[0].mac packetDropIncorrectlyReceived:vector(packetBytes) ETV
attr interpolationmode none
attr source packetDropReasonIsIncorrectlyReceived(packetDropped)
attr title "packet drops: incorrectly received, vector(packetBytes)"
vector 297 Scenario.node[4].wlan[0].mac.dcf packetSentToPeer:vector(packetBytes) ETV
attr interpolationmode none
attr title "packets sent, vector(packetBytes)"
vector 298 Scenario.node[4].wlan[0].mac.dcf packetSentToPeerMulticast:vector(packetBytes) ETV
attr interpolationmode none
attr source ieee80211Multicast(packetSentToPeer)
attr title "packets sent: multicast, vector(packetBytes)"
vector 299 Scenario.node[4].wlan[0].mac.dcf packetSentToPeerWithoutRetry:vector(packetBytes) ETV
attr interpolationmode none
attr source ieee80211NotRetry(packetSentToPeer)
attr title "packets sent: without retry, vector(packetBytes)"
vector 300 Scenario.node[4].wlan[0].mac.dcf.channelAccess.inProgressFrames queueingTime:vector ETV
attr interpolationmode none
attr source queueingTime(packetDequeued)
attr title "queueing times, vector"
vector 301 Scenario.node[22].wlan[0].mac.dcf.channelAccess.pendingQueue packetPopped:vector(packetBytes) ETV
attr interpolationmode none
attr title "packet popped, vector(packetBytes)"
vector 302 Scenario.node[22].wlan[0].mac.dcf.channelAccess.pendingQueue queueingTime:vector ETV
attr interpolationmode none
attr source queueingTime(packetPopped)
attr title "queueing times, vector"
attr unit s
vector 303 Scenario.node[22].wlan[0].mac.dcf.channelAccess.inProgressFrames queueLength:vector ETV
attr interpolationmode sample-hold
attr source "count(packetEnqueued) - count(packetDequeued)"
attr title "queue length, vector"
vector 304 Scenario.node[22].wlan[0].mac.dcf datarateSelected:vector ETV
attr interpolationmode none
attr title "datarates selected, vector"
vector 305 Scenario.node[22].wlan[0].mac packetSentToLower:vector(packetBytes) ETV
attr interpolationmode none
attr title "packets sent to lower layer, vector(packetBytes)"
vector 306 Scenario.node[22].wlan[0].mac.dcf frameSequenceActive:vector ETV
attr interpolationmode sample-hold
attr source count(frameSequenceStarted)-count(frameSequenceFinished)
attr title "frame sequence active, vector"
vector 307 Scenario.node[22].wlan[0].radio transmissionState:vector ETV
attr interpolationmode sample-hold
attr source transmissionStateChanged
attr title "Radio transmission state, vector"
vector 308 Scenario.node[22].wlan[0].mac.dcf packetSentToPeer:vector(packetBytes) ETV
attr interpolationmode none
attr title "packets sent, vector(packetBytes)"
vector 309 Scenario.node[22].wlan[0].mac.dcf packetSentToPeerMulticast:vector(packetBytes) ETV
attr interpolationmode none
attr source ieee80211Multicast(packetSentToPeer)
attr title "packets sent: multicast, vector(packetBytes)"
vector 310 Scenario.node[22].wlan[0].mac.dcf packetSentToPeerWithoutRetry:vector(packetBytes) ETV
attr interpolationmode none
attr source ieee80211NotRetry(packetSentToPeer)
attr title "packets sent: without retry, vector(packetBytes)"
vector 311 Scenario.node[22].wlan[0].mac.dcf.channelAccess.inProgressFrames queueingTime:vector ETV
attr interpolationmode none
attr source queueingTime(packetDequeued)
attr title "queueing times, vector"
vector 312 Scenario.node[8].wlan[0].mac.dcf packetReceivedFromPeer:vector(packetBytes) ETV
attr interpolationmode none
attr title "packets received, vector(packetBytes)"
vector 313 Scenario.node[8].wlan[0].mac.dcf packetReceivedFromPeerMulticast:vector(packetBytes) ETV
attr interpolationmode none
attr source ieee80211Multicast(packetReceivedFromPeer)
attr title "packets received: multicast, vector(packetBytes)"
vector 314 Scenario.node[8].wlan[0].mac.dcf packetReceivedFromPeerWithoutRetry:vector(packetBytes) ETV
attr interpolationmode none
attr source ieee80211NotRetry(packetReceivedFromPeer)
attr title "packets received: without retry, vector(packetBytes)"
vector 315 Scenario.node[8].wlan[0].mac packetSentToUpper:vector(packetBytes) ETV
attr interpolationmode none
attr title "packets sent to upper layer, vector(packetBytes)"
vector 316 Scenario.node[8].udp packetReceived:vector(packetBytes) ETV
attr interpolationmode none
attr source packetReceived
attr title "packets received, vector(packetBytes)"
vector 317 Scenario.node[8].udp passedUpPk:vector(count) ETV
attr interpolationmode none
attr source packetSentToUpper
attr title "packets passed up, vector(count)"
vector 318 Scenario.node[8].app[0] packetReceived:vector(packetBytes) ETV
attr interpolationmode none
attr source packetReceived
attr title "packets received, vector(packetBytes)"
vector 319 Scenario.node[8].app[0] throughput:vector ETV
attr source throughput(packetReceived)
attr title "throughput, vector"
attr unit bps
vector 320 Scenario.node[8].app[0] rcvdPkLifetime:vector ETV
attr interpolationmode none
attr source dataAge(packetReceived)
attr title "received packet lifetime, vector"
attr unit s
vector 321 Scenario.node[8].app[0] packetSent:vector(packetBytes) ETV
attr interpolationmode none
attr source packetSent
attr title "packets sent, vector(packetBytes)"
vector 322 Scenario.node[8].udp packetSent:vector(packetBytes) ETV
attr interpolationmode none
attr source packetSent
attr title "packets sent, vector(packetBytes)"
vector 323 Scenario.node[8].lo[0].lo rcvdPkFromHl:vector(packetBytes) ETV
attr interpolationmode none
attr source packetReceivedFromUpper
attr title "packets received from higher layer, vector(packetBytes)"
vector 324 Scenario.node[8].lo[0].lo passedUpPk:vector(packetBytes) ETV
attr interpolationmode none
attr source packetSentToUpper
attr title "packets passed to higher layer, vector(packetBytes)"
vector 325 Scenario.node[8].wlan[0].mac packetReceivedFromUpper:vector(packetBytes) ETV
attr interpolationmode none
attr title "packets received from upper layer, vector(packetBytes)"
vector 326 Scenario.node[8].wlan[0].mac.dcf.channelAccess.pendingQueue packetPushed:vector(packetBytes) ETV
attr interpolationmode none
attr title "packet pushed, vector(packetBytes)"
vector 327 Scenario.node[8].wlan[0].mac.dcf.channelAccess.pendingQueue queueLength:vector ETV
attr interpolationmode sample-hold
attr source "count(packetPushed) - count(packetPopped) - count(packetRemoved) - count(packetDropped)"
attr title "queue length, vector"
vector 328 Scenario.node[8].wlan[0].mac.dcf.channelAccess.contention backoffPeriodGenerated:vector ETV
attr interpolationmode none
attr title "backoff periods, vector"
vector 329 Scenario.node[8].wlan[0].mac.dcf.channelAccess.contention backoffActive:vector ETV
attr interpolationmode sample-hold
attr source count(backoffStarted)-count(backoffStopped)
attr title "backoff active, vector"
vector 330 Scenario.node[15].wlan[0].mac.dcf.channelAccess.pendingQueue packetPopped:vector(packetBytes) ETV
attr interpolationmode none
attr title "packet popped, vector(packetBytes)"
vector 331 Scenario.node[15].wlan[0].mac.dcf.channelAccess.pendingQueue queueingTime:vector ETV
attr interpolationmode none
attr source queueingTime(packetPopped)
attr title "queueing times, vector"
attr unit s
vector 332 Scenario.node[15].wlan[0].mac.dcf.channelAccess.inProgressFrames queueLength:vector ETV
attr interpolationmode sample-hold
attr source "count(packetEnqueued) - count(packetDequeued)"
attr title "queue length, vector"
vector 333 Scenario.node[15].wlan[0].mac.dcf datarateSelected:vector ETV
attr interpolationmode none
attr title "datarates selected, vector"
vector 334 Scenario.node[15].wlan[0].mac packetSentToLower:vector(packetBytes) ETV
attr interpolationmode none
attr title "packets sent to lower layer, vector(packetBytes)"
vector 335 Scenario.node[15].wlan[0].mac.dcf frameSequenceActive:vector ETV
attr interpolationmode sample-hold
attr source count(frameSequenceStarted)-count(frameSequenceFinished)
attr title "frame sequence active, vector"
vector 336 Scenario.node[15].wlan[0].radio transmissionState:vector ETV
attr interpolationmode sample-hold
attr source transmissionStateChanged
attr title "Radio transmission state, vector"
vector 337 Scenario.node[8].wlan[0].mac.dcf.channelAccess.pendingQueue packetPopped:vector(packetBytes) ETV
attr interpolationmode none
attr title "packet popped, vector(packetBytes)"
vector 338 Scenario.node[8].wlan[0].mac.dcf.channelAccess.pendingQueue queueingTime:vector ETV
attr interpolationmode none
attr source queueingTime(packetPopped)
attr title "queueing times, vector"
attr unit s
vector 339 Scenario.node[8].wlan[0].mac.dcf.channelAccess.inProgressFrames queueLength:vector ETV
attr interpolationmode sample-hold
attr source "count(packetEnqueued) - count(packetDequeued)"
attr title "queue length, vector"
vector 340 Scenario.node[8].wlan[0].mac.dcf datarateSelected:vector ETV
attr interpolationmode none
attr title "datarates selected, vector"
vector 341 Scenario.node[8].wlan[0].mac packetSentToLower:vector(packetBytes) ETV
attr interpolationmode none
attr title "packets sent to lower layer, vector(packetBytes)"
vector 342 Scenario.node[8].wlan[0].mac.dcf frameSequenceActive:vector ETV
attr interpolationmode sample-hold
attr source count(frameSequenceStarted)-count(frameSequenceFinished)
attr title "frame sequence active, vector"
vector 343 Scenario.node[8].wlan[0].radio transmissionState:vector ETV
attr interpolationmode sample-hold
attr source transmissionStateChanged
attr title "Radio transmission state, vector"
vector 344 Scenario.node[15].wlan[0].mac.dcf packetSentToPeer:vector(packetBytes) ETV
attr interpolationmode none
attr title "packets sent, vector(packetBytes)"
vector 345 Scenario.node[15].wlan[0].mac.dcf packetSentToPeerMulticast:vector(packetBytes) ETV
attr interpolationmode none
attr source ieee80211Multicast(packetSentToPeer)
attr title "packets sent: multicast, vector(packetBytes)"
vector 346 Scenario.node[15].wlan[0].mac.dcf packetSentToPeerWithoutRetry:vector(packetBytes) ETV
attr interpolationmode none
attr source ieee80211NotRetry(packetSentToPeer)
attr title "packets sent: without retry, vector(packetBytes)"
vector 347 Scenario.node[15].wlan[0].mac.dcf.channelAccess.inProgressFrames queueingTime:vector ETV
attr interpolationmode none
attr source queueingTime(packetDequeued)
attr title "queueing times, vector"
vector 348 Scenario.node[25].wlan[0].mac packetDrop:vector(packetBytes) ETV
attr interpolationmode none
attr source packetDropped
attr title "packet drops, vector(packetBytes)"
vector 349 Scenario.node[25].wlan[0].mac packetDropIncorrectlyReceived:vector(packetBytes) ETV
attr interpolationmode none
attr source packetDropReasonIsIncorrectlyReceived(packetDropped)
attr title "packet drops: incorrectly received, vector(packetBytes)"
vector 350 Scenario.node[0].wlan[0].mac packetDrop:vector(packetBytes) ETV
attr interpolationmode none
attr source packetDropped
attr title "packet drops, vector(packetBytes)"
vector 351 Scenario.node[0].wlan[0].mac packetDropIncorrectlyReceived:vector(packetBytes) ETV
attr interpolationmode none
attr source packetDropReasonIsIncorrectlyReceived(packetDropped)
attr title "packet drops: incorrectly received, vector(packetBytes)"
vector 352 Scenario.node[8].wlan[0].mac.dcf packetSentToPeer:vector(packetBytes) ETV
attr interpolationmode none
attr title "packets sent, vector(packetBytes)"
vector 353 Scenario.node[8].wlan[0].mac.dcf packetSentToPeerMulticast:vector(packetBytes) ETV
attr interpolationmode none
attr source ieee80211Multicast(packetSentToPeer)
attr title "packets sent: multicast, vector(packetBytes)"
vector 354 Scenario.node[8].wlan[0].mac.dcf packetSentToPeerWithoutRetry:vector(packetBytes) ETV
attr interpolationmode none
attr source ieee80211NotRetry(packetSentToPeer)
attr title "packets sent: without retry, vector(packetBytes)"
vector 355 Scenario.node[8].wlan[0].mac.dcf.channelAccess.inProgressFrames queueingTime:vector ETV
attr interpolationmode none
attr source queueingTime(packetDequeued)
attr title "queueing times, vector"
vector 356 Scenario.node[6].wlan[0].mac.dcf.channelAccess.pendingQueue packetPopped:vector(packetBytes) ETV
attr interpolationmode none
attr title "packet popped, vector(packetBytes)"
vector 357 Scenario.node[6].wlan[0].mac.dcf.channelAccess.pendingQueue queueingTime:vector ETV
attr interpolationmode none
attr source queueingTime(packetPopped)
attr title "queueing times, vector"
attr unit s
vector 358 Scenario.node[6].wlan[0].mac.dcf.channelAccess.inProgressFrames queueLength:vector ETV
attr interpolationmode sample-hold
attr source "count(packetEnqueued) - count(packetDequeued)"
attr title "queue length, vector"
vector 359 Scenario.node[6].wlan[0].mac.dcf datarateSelected:vector ETV
attr interpolationmode none
attr title "datarates selected, vector"
vector 360 Scenario.node[6].wlan[0].mac packetSentToLower:vector(packetBytes) ETV
attr interpolationmode none
attr title "packets sent to lower layer, vector(packetBytes)"
vector 361 Scenario.node[6].wlan[0].mac.dcf frameSequenceActive:vector ETV
attr interpolationmode sample-hold
attr source count(frameSequenceStarted)-count(frameSequenceFinished)
attr title "frame sequence active, vector"
vector 362 Scenario.node[6].wlan[0].radio transmissionState:vector ETV
attr interpolationmode sample-hold
attr source transmissionStateChanged
attr title "Radio transmission state, vector"
vector 363 Scenario.node[24].wlan[0].mac.dcf.channelAccess.pendingQueue packetPopped:vector(packetBytes) ETV
attr interpolationmode none
attr title "packet popped, vector(packetBytes)"
vector 364 Scenario.node[24].wlan[0].mac.dcf.channelAccess.pendingQueue queueingTime:vector ETV
attr interpolationmode none
attr source queueingTime(packetPopped)
attr title "queueing times, vector"
attr unit s
vector 365 Scenario.node[24].wlan[0].mac.dcf.channelAccess.inProgressFrames queueLength:vector ETV
attr interpolationmode sample-hold
attr source "count(packetEnqueued) - count(packetDequeued)"
attr title "queue length, vector"
vector 366 Scenario.node[24].wlan[0].mac.dcf datarateSelected:vector ETV
attr interpolationmode none
attr title "datarates selected, vector"
vector 367 Scenario.node[24].wlan[0].mac packetSentToLower:vector(packetBytes) ETV
attr interpolationmode none
attr title "packets sent to lower layer, vector(packetBytes)"
vector 368 Scenario.node[24].wlan[0].mac.dcf frameSequenceActive:vector ETV
attr interpolationmode sample-hold
attr source count(frameSequenceStarted)-count(frameSequenceFinished)
attr title "frame sequence active, vector"
vector 369 Scenario.node[24].wlan[0].radio transmissionState:vector ETV
attr interpolationmode sample-hold
attr source transmissionStateChanged
attr title "Radio transmission state, vector"
vector 370 Scenario.node[6].wlan[0].mac.dcf packetSentToPeer:vector(packetBytes) ETV
attr interpolationmode none
attr title "packets sent, vector(packetBytes)"
vector 371 Scenario.node[6].wlan[0].mac.dcf packetSentToPeerMulticast:vector(packetBytes) ETV
attr interpolationmode none
attr source ieee80211Multicast(packetSentToPeer)
attr title "packets sent: multicast, vector(packetBytes)"
vector 372 Scenario.node[6].wlan[0].mac.dcf packetSentToPeerWithoutRetry:vector(packetBytes) ETV
attr interpolationmode none
attr source ieee80211NotRetry(packetSentToPeer)
attr title "packets sent: without retry, vector(packetBytes)"
vector 373 Scenario.node[6].wlan[0].mac.dcf.channelAccess.inProgressFrames queueingTime:vector ETV
attr interpolationmode none
attr source queueingTime(packetDequeued)
attr title "queueing times, vector"
vector 374 Scenario.node[24].wlan[0].mac.dcf packetSentToPeer:vector(packetBytes) ETV
attr interpolationmode none
attr title "packets sent, vector(packetBytes)"
vector 375 Scenario.node[24].wlan[0].mac.dcf packetSentToPeerMulticast:vector(packetBytes) ETV
attr interpolationmode none
attr source ieee80211Multicast(packetSentToPeer)
attr title "packets sent: multicast, vector(packetBytes)"
vector 376 Scenario.node[24].wlan[0].mac.dcf packetSentToPeerWithoutRetry:vector(packetBytes) ETV
attr interpolationmode none
attr source ieee80211NotRetry(packetSentToPeer)
attr title "packets sent: without retry, vector(packetBytes)"
vector 377 Scenario.node[24].wlan[0].mac.dcf.channelAccess.inProgressFrames queueingTime:vector ETV
attr interpolationmode none
attr source queueingTime(packetDequeued)
attr title "queueing times, vector"
vector 378 Scenario.node[4].wlan[0].mac packetDrop:vector(packetBytes) ETV
attr interpolationmode none
attr source packetDropped
attr title "packet drops, vector(packetBytes)"
vector 379 Scenario.node[4].wlan[0].mac packetDropIncorrectlyReceived:vector(packetBytes) ETV
attr interpolationmode none
attr source packetDropReasonIsIncorrectlyReceived(packetDropped)
attr title "packet drops: incorrectly received, vector(packetBytes)"
vector 380 Scenario.node[1].app[0] throughput:vector ETV
attr source throughput(packetReceived)
attr title "throughput, vector"
attr unit bps
vector 381 Scenario.node[2].app[0] throughput:vector ETV
attr source throughput(packetReceived)
attr title "throughput, vector"
attr unit bps
vector 382 Scenario.node[3].app[0] throughput:vector ETV
attr source throughput(packetReceived)
attr title "throughput, vector"
attr unit bps
vector 383 Scenario.node[5].app[0] throughput:vector ETV
attr source throughput(packetReceived)
attr title "throughput, vector"
attr unit bps
vector 384 Scenario.node[7].app[0] throughput:vector ETV
attr source throughput(packetReceived)
attr title "throughput, vector"
attr unit bps
vector 385 Scenario.node[9].app[0] throughput:vector ETV
attr source throughput(packetReceived)
attr title "throughput, vector"
attr unit bps
vector 386 Scenario.node[10].app[0] throughput:vector ETV
attr source throughput(packetReceived)
attr title "throughput, vector"
attr unit bps
vector 387 Scenario.node[11].app[0] throughput:vector ETV
attr source throughput(packetReceived)
attr title "throughput, vector"
attr unit bps
vector 388 Scenario.node[12].app[0] throughput:vector ETV
attr source throughput(packetReceived)
attr title "throughput, vector"
attr unit bps
vector 389 Scenario.node[13].app[0] throughput:vector ETV
attr source throughput(packetReceived)
attr title "throughput, vector"
attr unit bps
vector 390 Scenario.node[14].app[0] throughput:vector ETV
attr source throughput(packetReceived)
attr title "throughput, vector"
attr unit bps
vector 391 Scenario.node[16].app[0] throughput:vector ETV
attr source throughput(packetReceived)
attr title "throughput, vector"
attr unit bps
vector 392 Scenario.node[17].app[0] throughput:vector ETV
attr source throughput(packetReceived)
attr title "throughput, vector"
attr unit bps
vector 393 Scenario.node[18].app[0] throughput:vector ETV
attr source throughput(packetReceived)
attr title "throughput, vector"
attr unit bps
vector 394 Scenario.node[19].app[0] throughput:vector ETV
attr source throughput(packetReceived)
attr title "throughput, vector"
attr unit bps
vector 395 Scenario.node[20].app[0] throughput:vector ETV
attr source throughput(packetReceived)
attr title "throughput, vector"
attr unit bps
vector 396 Scenario.node[21].app[0] throughput:vector ETV
attr source throughput(packetReceived)
attr title "throughput, vector"
attr unit bps
vector 397 Scenario.node[23].app[0] throughput:vector ETV
attr source throughput(packetReceived)
attr title "throughput, vector"
attr unit bps
vector 398 Scenario.node[26].app[0] throughput:vector ETV
attr source throughput(packetReceived)
attr title "throughput, vector"
attr unit bps
vector 399 Scenario.node[27].app[0] throughput:vector ETV
attr source throughput(packetReceived)
attr title "throughput, vector"
attr unit bps
vector 400 Scenario.node[28].app[0] throughput:vector ETV
attr source throughput(packetReceived)
attr title "throughput, vector"
attr unit bps
vector 401 Scenario.node[29].app[0] throughput:vector ETV
attr source throughput(packetReceived)
attr title "throughput, vector"
attr unit bps
vector 402 Scenario.node[30].app[0] throughput:vector ETV
attr source throughput(packetReceived)
attr title "throughput, vector"
attr unit bps
0	2	0.1	0
0	2	0.1	0
0	2	0.1	2
0	314	20	3
0	347	20.000152	2
0	841	20.001224869975	3
0	874	20.001376869975	2
1	2	0.1	3
2	2	0.1	1
2	314	20	0
2	347	20.000152	1
2	460	20.000210410378	3
2	526	20.000362410378	2
2	569	20.000481077562	1
2	605	20.000580178671	3
2	652	20.000732178671	1
2	708	20.000816869975	3
2	776	20.000968869975	1
2	841	20.001224869975	0
2	874	20.001376869975	1
2	943	20.001475776207	3
2	1013	20.001627776207	2
2	1042	20.001665408867	1
3	2	0.1	15
4	15	1.1	0
4	15	1.1	0
4	15	1.1	2
5	15	1.1	3
6	15	1.1	1
7	15	1.1	15
8	15	1.1	0
8	15	1.1	0
8	15	1.1	2
9	15	1.1	3
10	15	1.1	1
11	15	1.1	15
12	15	1.1	0
12	15	1.1	0
12	15	1.1	2
13	15	1.1	3
14	15	1.1	1
15	15	1.1	15
16	15	1.1	0
16	15	1.1	0
16	15	1.1	2
16	492	20.000328038781	3
16	567	20.000480038781	2
17	15	1.1	3
18	15	1.1	1
18	321	20.000001038781	3
18	418	20.000153038781	1
18	492	20.000328038781	0
18	567	20.000480038781	1
18	744	20.000843548412	2
18	783	20.000969876258	1
18	848	20.001225908756	3
18	905	20.001377908756	1
18	977	20.001514110567	3
18	1046	20.001666110567	1
19	15	1.1	15
20	15	1.1	0
20	15	1.1	0
20	15	1.1	2
21	15	1.1	3
22	15	1.1	1
23	15	1.1	15
24	15	1.1	0
24	15	1.1	0
24	15	1.1	2
24	937	20.001474823091	3
24	1004	20.001626823091	2
25	15	1.1	3
26	15	1.1	1
26	320	20.000000953116	3
26	404	20.000152953116	1
26	464	20.000210959596	3
26	538	20.000362959596	1
26	602	20.000579959734	3
26	634	20.000731959734	1
26	709	20.000816893229	3
26	778	20.000968893229	2
26	809	20.000994964156	1
26	847	20.001225823091	3
26	899	20.001377823091	1
26	937	20.001474823091	0
26	1004	20.001626823091	1
27	15	1.1	15
28	15	1.1	0
28	15	1.1	0
28	15	1.1	2
29	15	1.1	3
30	15	1.1	1
31	15	1.1	15
32	15	1.1	0
32	15	1.1	0
32	15	1.1	2
32	738	20.000842295313	3
32	808	20.000994295313	2
33	15	1.1	3
34	15	1.1	1
34	465	20.000211130476	3
34	540	20.000363130476	1
34	606	20.000580295313	3
34	658	20.000732295313	1
34	738	20.000842295313	0
34	808	20.000994295313	1
34	940	20.001475491934	3
34	1007	20.001627491934	1
35	15	1.1	15
36	15	1.1	0
36	15	1.1	0
36	15	1.1	2
37	15	1.1	3
38	15	1.1	1
39	15	1.1	15
40	15	1.1	0
40	15	1.1	0
40	15	1.1	2
41	15	1.1	3
42	15	1.1	1
43	15	1.1	15
44	15	1.1	0
44	15	1.1	0
44	15	1.1	2
45	15	1.1	3
46	15	1.1	1
47	15	1.1	15
48	15	1.1	0
48	15	1.1	0
48	15	1.1	2
49	15	1.1	3
50	15	1.1	1
51	15	1.1	15
52	15	1.1	0
52	15	1.1	0
52	15	1.1	2
53	15	1.1	3
54	15	1.1	1
55	15	1.1	15
56	15	1.1	0
56	15	1.1	0
56	15	1.1	2
57	15	1.1	3
58	15	1.1	1
59	15	1.1	15
60	15	1.1	0
60	15	1.1	0
60	15	1.1	2
60	704	20.000816167265	3
60	771	20.000968167265	2
61	15	1.1	3
62	15	1.1	1
62	319	20.00000070271	3
62	390	20.00015270271	1
62	463	20.000210838104	3
62	536	20.000362838104	1
62	604	20.000580167265	3
62	646	20.000732167265	1
62	704	20.000816167265	0
62	771	20.000968167265	1
62	846	20.001225572685	3
62	893	20.001377572685	1
62	941	20.001475549055	3
62	1009	20.001627549055	2
62	1045	20.001666051401	1
63	15	1.1	15
64	15	1.1	0
64	15	1.1	0
64	15	1.1	2
65	15	1.1	3
66	15	1.1	1
67	15	1.1	15
68	15	1.1	0
68	15	1.1	0
68	15	1.1	2
69	15	1.1	3
70	15	1.1	1
71	15	1.1	15
72	76	2.1	0
72	76	2.1	0
72	76	2.1	2
73	76	2.1	3
74	76	2.1	1
75	76	2.1	15
76	76	2.1	0
76	76	2.1	0
76	76	2.1	2
77	76	2.1	3
78	76	2.1	1
79	76	2.1	15
80	76	2.1	0
80	76	2.1	0
80	76	2.1	2
81	76	2.1	3
82	76	2.1	1
83	76	2.1	15
84	76	2.1	0
84	76	2.1	0
84	76	2.1	2
85	76	2.1	3
86	76	2.1	1
87	76	2.1	15
88	76	2.1	0
88	76	2.1	0
88	76	2.1	2
88	600	20.000579591689	3
88	633	20.000731591689	2
89	76	2.1	3
90	76	2.1	1
90	318	20.000000586982	3
90	376	20.000152586982	1
90	461	20.000210591689	3
90	532	20.000362591689	1
90	600	20.000579591689	0
90	633	20.000731591689	1
[...]
398	1152	6.3	0
398	1152	6.4	0
398	1152	6.5	0
398	1152	6.6	0
398	1152	6.7	0
398	1152	6.8	0
398	1152	6.9	0
398	1152	7	0
398	1152	7.1	0
398	1152	7.2	0
398	1152	7.3	0
398	1152	7.4	0
398	1152	7.5	0
398	1152	7.6	0
398	1152	7.7	0
398	1152	7.8	0
398	1152	7.9	0
398	1152	8	0
398	1152	8.1	0
398	1152	8.2	0
398	1152	8.3	0
398	1152	8.4	0
398	1152	8.5	0
398	1152	8.6	0
398	1152	8.7	0
398	1152	8.8	0
398	1152	8.9	0
398	1152	9	0
398	1152	9.1	0
398	1152	9.2	0
398	1152	9.3	0
398	1152	9.4	0
398	1152	9.5	0
398	1152	9.6	0
398	1152	9.7	0
398	1152	9.8	0
398	1152	9.9	0
398	1152	10	0
398	1152	10.1	0
398	1152	10.2	0
398	1152	10.3	0
398	1152	10.4	0
398	1152	10.5	0
398	1152	10.6	0
398	1152	10.7	0
398	1152	10.8	0
398	1152	10.9	0
398	1152	11	0
398	1152	11.1	0
398	1152	11.2	0
398	1152	11.3	0
398	1152	11.4	0
398	1152	11.5	0
398	1152	11.6	0
398	1152	11.7	0
398	1152	11.8	0
398	1152	11.9	0
398	1152	12	0
398	1152	12.1	0
398	1152	12.2	0
398	1152	12.3	0
398	1152	12.4	0
398	1152	12.5	0
398	1152	12.6	0
398	1152	12.7	0
398	1152	12.8	0
398	1152	12.9	0
398	1152	13	0
398	1152	13.1	0
398	1152	13.2	0
398	1152	13.3	0
398	1152	13.4	0
398	1152	13.5	0
398	1152	13.6	0
398	1152	13.7	0
398	1152	13.8	0
398	1152	13.9	0
398	1152	14	0
398	1152	14.1	0
398	1152	14.2	0
398	1152	14.3	0
398	1152	14.4	0
398	1152	14.5	0
398	1152	14.6	0
398	1152	14.7	0
398	1152	14.8	0
398	1152	14.9	0
398	1152	15	0
398	1152	15.1	0
398	1152	15.2	0
398	1152	15.3	0
398	1152	15.4	0
398	1152	15.5	0
398	1152	15.6	0
398	1152	15.7	0
398	1152	15.8	0
398	1152	15.9	0
398	1152	16	0
398	1152	16.1	0
398	1152	16.2	0
398	1152	16.3	0
398	1152	16.4	0
398	1152	16.5	0
398	1152	16.6	0
398	1152	16.7	0
398	1152	16.8	0
398	1152	16.9	0
398	1152	17	0
398	1152	17.1	0
398	1152	17.2	0
398	1152	17.3	0
398	1152	17.4	0
398	1152	17.5	0
398	1152	17.6	0
398	1152	17.7	0
398	1152	17.8	0
398	1152	17.9	0
398	1152	18	0
398	1152	18.1	0
398	1152	18.2	0
398	1152	18.3	0
398	1152	18.4	0
398	1152	18.5	0
398	1152	18.6	0
398	1152	18.7	0
398	1152	18.8	0
398	1152	18.9	0
398	1152	19	0
398	1152	19.1	0
398	1152	19.2	0
398	1152	19.3	0
398	1152	19.4	0
398	1152	19.5	0
398	1152	19.6	0
398	1152	19.7	0
398	1152	19.8	0
398	1152	19.9	0
398	1152	20	0
398	1152	20.1	0
398	1152	20.2	0
398	1152	20.3	0
398	1152	20.4	0
398	1152	20.5	0
398	1152	20.6	0
398	1152	20.7	0
398	1152	20.8	0
398	1152	20.9	0
398	1152	21	0
398	1152	21.1	0
398	1152	21.2	0
398	1152	21.3	0
398	1152	21.4	0
398	1152	21.5	0
398	1152	21.6	0
398	1152	21.7	0
398	1152	21.8	0
398	1152	21.9	0
398	1152	22	0
398	1152	22.1	0
398	1152	22.2	0
398	1152	22.3	0
398	1152	22.4	0
398	1152	22.5	0
398	1152	22.6	0
398	1152	22.7	0
398	1152	22.8	0
398	1152	22.9	0
398	1152	23	0
398	1152	23.1	0
398	1152	23.2	0
398	1152	23.3	0
398	1152	23.4	0
398	1152	23.5	0
398	1152	23.6	0
398	1152	23.7	0
398	1152	23.8	0
398	1152	23.9	0
398	1152	24	0
398	1152	24.1	0
398	1152	24.2	0
398	1152	24.3	0
398	1152	24.4	0
398	1152	24.5	0
398	1152	24.6	0
398	1152	24.7	0
398	1152	24.8	0
398	1152	24.9	0
398	1152	25	0
398	1152	25.1	0
398	1152	25.2	0
398	1152	25.3	0
398	1152	25.4	0
398	1152	25.5	0
398	1152	25.6	0
398	1152	25.7	0
398	1152	25.8	0
398	1152	25.9	0
398	1152	26	0
398	1152	26.1	0
398	1152	26.2	0
398	1152	26.3	0
398	1152	26.4	0
398	1152	26.5	0
398	1152	26.6	0
398	1152	26.7	0
398	1152	26.8	0
398	1152	26.9	0
398	1152	27	0
398	1152	27.1	0
399	1152	0.1	0
399	1152	0.2	0
399	1152	0.3	0
399	1152	0.4	0
399	1152	0.5	0
399	1152	0.6	0
399	1152	0.7	0
399	1152	0.8	0
399	1152	0.9	0
399	1152	1	0
399	1152	1.1	0
399	1152	1.2	0
399	1152	1.3	0
399	1152	1.4	0
399	1152	1.5	0
399	1152	1.6	0
399	1152	1.7	0
399	1152	1.8	0
399	1152	1.9	0
399	1152	2	0
399	1152	2.1	0
399	1152	2.2	0
399	1152	2.3	0
399	1152	2.4	0
399	1152	2.5	0
399	1152	2.6	0
399	1152	2.7	0
399	1152	2.8	0
399	1152	2.9	0
399	1152	3	0
399	1152	3.1	0
399	1152	3.2	0
399	1152	3.3	0
399	1152	3.4	0
399	1152	3.5	0
399	1152	3.6	0
399	1152	3.7	0
399	1152	3.8	0
399	1152	3.9	0
399	1152	4	0
399	1152	4.1	0
399	1152	4.2	0
399	1152	4.3	0
399	1152	4.4	0
399	1152	4.5	0
399	1152	4.6	0
399	1152	4.7	0
399	1152	4.8	0
399	1152	4.9	0
399	1152	5	0
399	1152	5.1	0
399	1152	5.2	0
399	1152	5.3	0
399	1152	5.4	0
399	1152	5.5	0
399	1152	5.6	0
399	1152	5.7	0
399	1152	5.8	0
399	1152	5.9	0
399	1152	6	0
399	1152	6.1	0
399	1152	6.2	0
399	1152	6.3	0
399	1152	6.4	0
399	1152	6.5	0
399	1152	6.6	0
399	1152	6.7	0
399	1152	6.8	0
399	1152	6.9	0
399	1152	7	0
399	1152	7.1	0
399	1152	7.2	0
399	1152	7.3	0
399	1152	7.4	0
399	1152	7.5	0
399	1152	7.6	0
399	1152	7.7	0
399	1152	7.8	0
399	1152	7.9	0
399	1152	8	0
399	1152	8.1	0
399	1152	8.2	0
399	1152	8.3	0
399	1152	8.4	0
399	1152	8.5	0
399	1152	8.6	0
399	1152	8.7	0
399	1152	8.8	0
399	1152	8.9	0
399	1152	9	0
399	1152	9.1	0
399	1152	9.2	0
399	1152	9.3	0
399	1152	9.4	0
399	1152	9.5	0
399	1152	9.6	0
399	1152	9.7	0
399	1152	9.8	0
399	1152	9.9	0
399	1152	10	0
399	1152	10.1	0
399	1152	10.2	0
399	1152	10.3	0
399	1152	10.4	0
399	1152	10.5	0
399	1152	10.6	0
399	1152	10.7	0
399	1152	10.8	0
399	1152	10.9	0
399	1152	11	0
399	1152	11.1	0
399	1152	11.2	0
399	1152	11.3	0
399	1152	11.4	0
399	1152	11.5	0
399	1152	11.6	0
399	1152	11.7	0
399	1152	11.8	0
399	1152	11.9	0
399	1152	12	0
399	1152	12.1	0
399	1152	12.2	0
399	1152	12.3	0
399	1152	12.4	0
399	1152	12.5	0
399	1152	12.6	0
399	1152	12.7	0
399	1152	12.8	0
399	1152	12.9	0
399	1152	13	0
399	1152	13.1	0
399	1152	13.2	0
399	1152	13.3	0
399	1152	13.4	0
399	1152	13.5	0
399	1152	13.6	0
399	1152	13.7	0
399	1152	13.8	0
399	1152	13.9	0
399	1152	14	0
399	1152	14.1	0
399	1152	14.2	0
399	1152	14.3	0
399	1152	14.4	0
399	1152	14.5	0
399	1152	14.6	0
399	1152	14.7	0
399	1152	14.8	0
399	1152	14.9	0
399	1152	15	0
399	1152	15.1	0
399	1152	15.2	0
399	1152	15.3	0
399	1152	15.4	0
399	1152	15.5	0
399	1152	15.6	0
399	1152	15.7	0
399	1152	15.8	0
399	1152	15.9	0
399	1152	16	0
399	1152	16.1	0
399	1152	16.2	0
399	1152	16.3	0
399	1152	16.4	0
399	1152	16.5	0
399	1152	16.6	0
399	1152	16.7	0
399	1152	16.8	0
399	1152	16.9	0
399	1152	17	0
399	1152	17.1	0
399	1152	17.2	0
399	1152	17.3	0
399	1152	17.4	0
399	1152	17.5	0
399	1152	17.6	0
399	1152	17.7	0
399	1152	17.8	0
399	1152	17.9	0
399	1152	18	0
399	1152	18.1	0
399	1152	18.2	0
399	1152	18.3	0
399	1152	18.4	0
399	1152	18.5	0
399	1152	18.6	0
399	1152	18.7	0
399	1152	18.8	0
399	1152	18.9	0
399	1152	19	0
399	1152	19.1	0
399	1152	19.2	0
399	1152	19.3	0
399	1152	19.4	0
399	1152	19.5	0
399	1152	19.6	0
399	1152	19.7	0
399	1152	19.8	0
399	1152	19.9	0
399	1152	20	0
399	1152	20.1	0
399	1152	20.2	0
399	1152	20.3	0
399	1152	20.4	0
399	1152	20.5	0
399	1152	20.6	0
399	1152	20.7	0
399	1152	20.8	0
399	1152	20.9	0
399	1152	21	0
399	1152	21.1	0
399	1152	21.2	0
399	1152	21.3	0
399	1152	21.4	0
399	1152	21.5	0
399	1152	21.6	0
399	1152	21.7	0
399	1152	21.8	0
399	1152	21.9	0
399	1152	22	0
399	1152	22.1	0
399	1152	22.2	0
399	1152	22.3	0
399	1152	22.4	0
399	1152	22.5	0
399	1152	22.6	0
399	1152	22.7	0
399	1152	22.8	0
399	1152	22.9	0
399	1152	23	0
399	1152	23.1	0
399	1152	23.2	0
399	1152	23.3	0
399	1152	23.4	0
399	1152	23.5	0
399	1152	23.6	0
399	1152	23.7	0
399	1152	23.8	0
399	1152	23.9	0
399	1152	24	0
399	1152	24.1	0
399	1152	24.2	0
399	1152	24.3	0
399	1152	24.4	0
399	1152	24.5	0
399	1152	24.6	0
399	1152	24.7	0
399	1152	24.8	0
399	1152	24.9	0
399	1152	25	0
399	1152	25.1	0
399	1152	25.2	0
399	1152	25.3	0
399	1152	25.4	0
399	1152	25.5	0
399	1152	25.6	0
399	1152	25.7	0
399	1152	25.8	0
399	1152	25.9	0
399	1152	26	0
399	1152	26.1	0
399	1152	26.2	0
399	1152	26.3	0
399	1152	26.4	0
399	1152	26.5	0
399	1152	26.6	0
399	1152	26.7	0
399	1152	26.8	0
399	1152	26.9	0
399	1152	27	0
399	1152	27.1	0
400	1152	0.1	0
400	1152	0.2	0
400	1152	0.3	0
400	1152	0.4	0
400	1152	0.5	0
400	1152	0.6	0
400	1152	0.7	0
400	1152	0.8	0
400	1152	0.9	0
400	1152	1	0
400	1152	1.1	0
400	1152	1.2	0
400	1152	1.3	0
400	1152	1.4	0
400	1152	1.5	0
400	1152	1.6	0
400	1152	1.7	0
400	1152	1.8	0
400	1152	1.9	0
400	1152	2	0
400	1152	2.1	0
400	1152	2.2	0
400	1152	2.3	0
400	1152	2.4	0
400	1152	2.5	0
400	1152	2.6	0
400	1152	2.7	0
400	1152	2.8	0
400	1152	2.9	0
400	1152	3	0
400	1152	3.1	0
400	1152	3.2	0
400	1152	3.3	0
400	1152	3.4	0
400	1152	3.5	0
400	1152	3.6	0
400	1152	3.7	0
400	1152	3.8	0
400	1152	3.9	0
400	1152	4	0
400	1152	4.1	0
400	1152	4.2	0
400	1152	4.3	0
400	1152	4.4	0
400	1152	4.5	0
400	1152	4.6	0
400	1152	4.7	0
400	1152	4.8	0
400	1152	4.9	0
400	1152	5	0
400	1152	5.1	0
400	1152	5.2	0
400	1152	5.3	0
400	1152	5.4	0
400	1152	5.5	0
400	1152	5.6	0
400	1152	5.7	0
400	1152	5.8	0
400	1152	5.9	0
400	1152	6	0
400	1152	6.1	0
400	1152	6.2	0
400	1152	6.3	0
400	1152	6.4	0
400	1152	6.5	0
400	1152	6.6	0
400	1152	6.7	0
400	1152	6.8	0
400	1152	6.9	0
400	1152	7	0
400	1152	7.1	0
400	1152	7.2	0
400	1152	7.3	0
400	1152	7.4	0
400	1152	7.5	0
400	1152	7.6	0
400	1152	7.7	0
400	1152	7.8	0
400	1152	7.9	0
400	1152	8	0
400	1152	8.1	0
400	1152	8.2	0
400	1152	8.3	0
400	1152	8.4	0
400	1152	8.5	0
400	1152	8.6	0
400	1152	8.7	0
400	1152	8.8	0
400	1152	8.9	0
400	1152	9	0
400	1152	9.1	0
400	1152	9.2	0
400	1152	9.3	0
400	1152	9.4	0
400	1152	9.5	0
400	1152	9.6	0
400	1152	9.7	0
400	1152	9.8	0
400	1152	9.9	0
400	1152	10	0
400	1152	10.1	0
400	1152	10.2	0
400	1152	10.3	0
400	1152	10.4	0
400	1152	10.5	0
400	1152	10.6	0
400	1152	10.7	0
400	1152	10.8	0
400	1152	10.9	0
400	1152	11	0
400	1152	11.1	0
400	1152	11.2	0
400	1152	11.3	0
400	1152	11.4	0
400	1152	11.5	0
400	1152	11.6	0
400	1152	11.7	0
400	1152	11.8	0
400	1152	11.9	0
400	1152	12	0
400	1152	12.1	0
400	1152	12.2	0
400	1152	12.3	0
400	1152	12.4	0
400	1152	12.5	0
400	1152	12.6	0
400	1152	12.7	0
400	1152	12.8	0
400	1152	12.9	0
400	1152	13	0
400	1152	13.1	0
400	1152	13.2	0
400	1152	13.3	0
400	1152	13.4	0
400	1152	13.5	0
400	1152	13.6	0
400	1152	13.7	0
400	1152	13.8	0
400	1152	13.9	0
400	1152	14	0
400	1152	14.1	0
400	1152	14.2	0
400	1152	14.3	0
400	1152	14.4	0
400	1152	14.5	0
400	1152	14.6	0
400	1152	14.7	0
400	1152	14.8	0
400	1152	14.9	0
400	1152	15	0
400	1152	15.1	0
400	1152	15.2	0
400	1152	15.3	0
400	1152	15.4	0
400	1152	15.5	0
400	1152	15.6	0
400	1152	15.7	0
400	1152	15.8	0
400	1152	15.9	0
400	1152	16	0
400	1152	16.1	0
400	1152	16.2	0
400	1152	16.3	0
400	1152	16.4	0
400	1152	16.5	0
400	1152	16.6	0
400	1152	16.7	0
400	1152	16.8	0
400	1152	16.9	0
400	1152	17	0
400	1152	17.1	0
400	1152	17.2	0
400	1152	17.3	0
400	1152	17.4	0
400	1152	17.5	0
400	1152	17.6	0
400	1152	17.7	0
400	1152	17.8	0
400	1152	17.9	0
400	1152	18	0
400	1152	18.1	0
400	1152	18.2	0
400	1152	18.3	0
400	1152	18.4	0
400	1152	18.5	0
400	1152	18.6	0
400	1152	18.7	0
400	1152	18.8	0
400	1152	18.9	0
400	1152	19	0
400	1152	19.1	0
400	1152	19.2	0
400	1152	19.3	0
400	1152	19.4	0
400	1152	19.5	0
400	1152	19.6	0
400	1152	19.7	0
400	1152	19.8	0
400	1152	19.9	0
400	1152	20	0
400	1152	20.1	0
400	1152	20.2	0
400	1152	20.3	0
400	1152	20.4	0
400	1152	20.5	0
400	1152	20.6	0
400	1152	20.7	0
400	1152	20.8	0
400	1152	20.9	0
400	1152	21	0
400	1152	21.1	0
400	1152	21.2	0
400	1152	21.3	0
400	1152	21.4	0
400	1152	21.5	0
400	1152	21.6	0
400	1152	21.7	0
400	1152	21.8	0
400	1152	21.9	0
400	1152	22	0
400	1152	22.1	0
400	1152	22.2	0
400	1152	22.3	0
400	1152	22.4	0
400	1152	22.5	0
400	1152	22.6	0
400	1152	22.7	0
400	1152	22.8	0
400	1152	22.9	0
400	1152	23	0
400	1152	23.1	0
400	1152	23.2	0
400	1152	23.3	0
400	1152	23.4	0
400	1152	23.5	0
400	1152	23.6	0
400	1152	23.7	0
400	1152	23.8	0
400	1152	23.9	0
400	1152	24	0
400	1152	24.1	0
400	1152	24.2	0
400	1152	24.3	0
400	1152	24.4	0
400	1152	24.5	0
400	1152	24.6	0
400	1152	24.7	0
400	1152	24.8	0
400	1152	24.9	0
400	1152	25	0
400	1152	25.1	0
400	1152	25.2	0
400	1152	25.3	0
400	1152	25.4	0
400	1152	25.5	0
400	1152	25.6	0
400	1152	25.7	0
400	1152	25.8	0
400	1152	25.9	0
400	1152	26	0
400	1152	26.1	0
400	1152	26.2	0
400	1152	26.3	0
400	1152	26.4	0
400	1152	26.5	0
400	1152	26.6	0
400	1152	26.7	0
400	1152	26.8	0
400	1152	26.9	0
400	1152	27	0
400	1152	27.1	0
401	1152	0.1	0
401	1152	0.2	0
401	1152	0.3	0
401	1152	0.4	0
401	1152	0.5	0
401	1152	0.6	0
401	1152	0.7	0
401	1152	0.8	0
401	1152	0.9	0
401	1152	1	0
401	1152	1.1	0
401	1152	1.2	0
401	1152	1.3	0
401	1152	1.4	0
401	1152	1.5	0
401	1152	1.6	0
401	1152	1.7	0
401	1152	1.8	0
401	1152	1.9	0
401	1152	2	0
401	1152	2.1	0
401	1152	2.2	0
401	1152	2.3	0
401	1152	2.4	0
401	1152	2.5	0
401	1152	2.6	0
401	1152	2.7	0
401	1152	2.8	0
401	1152	2.9	0
401	1152	3	0
401	1152	3.1	0
401	1152	3.2	0
401	1152	3.3	0
401	1152	3.4	0
401	1152	3.5	0
401	1152	3.6	0
401	1152	3.7	0
401	1152	3.8	0
401	1152	3.9	0
401	1152	4	0
401	1152	4.1	0
401	1152	4.2	0
401	1152	4.3	0
401	1152	4.4	0
401	1152	4.5	0
401	1152	4.6	0
401	1152	4.7	0
401	1152	4.8	0
401	1152	4.9	0
401	1152	5	0
401	1152	5.1	0
401	1152	5.2	0
401	1152	5.3	0
401	1152	5.4	0
401	1152	5.5	0
401	1152	5.6	0
401	1152	5.7	0
401	1152	5.8	0
401	1152	5.9	0
401	1152	6	0
401	1152	6.1	0
401	1152	6.2	0
401	1152	6.3	0
401	1152	6.4	0
401	1152	6.5	0
401	1152	6.6	0
401	1152	6.7	0
401	1152	6.8	0
401	1152	6.9	0
401	1152	7	0
401	1152	7.1	0
401	1152	7.2	0
401	1152	7.3	0
401	1152	7.4	0
401	1152	7.5	0
401	1152	7.6	0
401	1152	7.7	0
401	1152	7.8	0
401	1152	7.9	0
401	1152	8	0
401	1152	8.1	0
401	1152	8.2	0
401	1152	8.3	0
401	1152	8.4	0
401	1152	8.5	0
401	1152	8.6	0
401	1152	8.7	0
401	1152	8.8	0
401	1152	8.9	0
401	1152	9	0
401	1152	9.1	0
401	1152	9.2	0
401	1152	9.3	0
401	1152	9.4	0
401	1152	9.5	0
401	1152	9.6	0
401	1152	9.7	0
401	1152	9.8	0
401	1152	9.9	0
401	1152	10	0
401	1152	10.1	0
401	1152	10.2	0
401	1152	10.3	0
401	1152	10.4	0
401	1152	10.5	0
401	1152	10.6	0
401	1152	10.7	0
401	1152	10.8	0
401	1152	10.9	0
401	1152	11	0
401	1152	11.1	0
401	1152	11.2	0
401	1152	11.3	0
401	1152	11.4	0
401	1152	11.5	0
401	1152	11.6	0
401	1152	11.7	0
401	1152	11.8	0
401	1152	11.9	0
401	1152	12	0
401	1152	12.1	0
401	1152	12.2	0
401	1152	12.3	0
401	1152	12.4	0
401	1152	12.5	0
401	1152	12.6	0
401	1152	12.7	0
401	1152	12.8	0
401	1152	12.9	0
401	1152	13	0
401	1152	13.1	0
401	1152	13.2	0
401	1152	13.3	0
401	1152	13.4	0
401	1152	13.5	0
401	1152	13.6	0
401	1152	13.7	0
401	1152	13.8	0
401	1152	13.9	0
401	1152	14	0
401	1152	14.1	0
401	1152	14.2	0
401	1152	14.3	0
401	1152	14.4	0
401	1152	14.5	0
401	1152	14.6	0
401	1152	14.7	0
401	1152	14.8	0
401	1152	14.9	0
401	1152	15	0
401	1152	15.1	0
401	1152	15.2	0
401	1152	15.3	0
401	1152	15.4	0
401	1152	15.5	0
401	1152	15.6	0
401	1152	15.7	0
401	1152	15.8	0
401	1152	15.9	0
401	1152	16	0
401	1152	16.1	0
401	1152	16.2	0
401	1152	16.3	0
401	1152	16.4	0
401	1152	16.5	0
401	1152	16.6	0
401	1152	16.7	0
401	1152	16.8	0
401	1152	16.9	0
401	1152	17	0
401	1152	17.1	0
401	1152	17.2	0
401	1152	17.3	0
401	1152	17.4	0
401	1152	17.5	0
401	1152	17.6	0
401	1152	17.7	0
401	1152	17.8	0
401	1152	17.9	0
401	1152	18	0
401	1152	18.1	0
401	1152	18.2	0
401	1152	18.3	0
401	1152	18.4	0
401	1152	18.5	0
401	1152	18.6	0
401	1152	18.7	0
401	1152	18.8	0
401	1152	18.9	0
401	1152	19	0
401	1152	19.1	0
401	1152	19.2	0
401	1152	19.3	0
401	1152	19.4	0
401	1152	19.5	0
401	1152	19.6	0
401	1152	19.7	0
401	1152	19.8	0
401	1152	19.9	0
401	1152	20	0
401	1152	20.1	0
401	1152	20.2	0
401	1152	20.3	0
401	1152	20.4	0
401	1152	20.5	0
401	1152	20.6	0
401	1152	20.7	0
401	1152	20.8	0
401	1152	20.9	0
401	1152	21	0
401	1152	21.1	0
401	1152	21.2	0
401	1152	21.3	0
401	1152	21.4	0
401	1152	21.5	0
401	1152	21.6	0
401	1152	21.7	0
401	1152	21.8	0
401	1152	21.9	0
401	1152	22	0
401	1152	22.1	0
401	1152	22.2	0
401	1152	22.3	0
401	1152	22.4	0
401	1152	22.5	0
401	1152	22.6	0
401	1152	22.7	0
401	1152	22.8	0
401	1152	22.9	0
401	1152	23	0
401	1152	23.1	0
401	1152	23.2	0
401	1152	23.3	0
401	1152	23.4	0
401	1152	23.5	0
401	1152	23.6	0
401	1152	23.7	0
401	1152	23.8	0
401	1152	23.9	0
401	1152	24	0
401	1152	24.1	0
401	1152	24.2	0
401	1152	24.3	0
401	1152	24.4	0
401	1152	24.5	0
401	1152	24.6	0
401	1152	24.7	0
401	1152	24.8	0
401	1152	24.9	0
401	1152	25	0
401	1152	25.1	0
401	1152	25.2	0
401	1152	25.3	0
401	1152	25.4	0
401	1152	25.5	0
401	1152	25.6	0
401	1152	25.7	0
401	1152	25.8	0
401	1152	25.9	0
401	1152	26	0
401	1152	26.1	0
401	1152	26.2	0
401	1152	26.3	0
401	1152	26.4	0
401	1152	26.5	0
401	1152	26.6	0
401	1152	26.7	0
401	1152	26.8	0
401	1152	26.9	0
401	1152	27	0
401	1152	27.1	0
402	1152	0.1	0
402	1152	0.2	0
402	1152	0.3	0
402	1152	0.4	0
402	1152	0.5	0
402	1152	0.6	0
402	1152	0.7	0
402	1152	0.8	0
402	1152	0.9	0
402	1152	1	0
402	1152	1.1	0
402	1152	1.2	0
402	1152	1.3	0
402	1152	1.4	0
402	1152	1.5	0
402	1152	1.6	0
402	1152	1.7	0
402	1152	1.8	0
402	1152	1.9	0
402	1152	2	0
402	1152	2.1	0
402	1152	2.2	0
402	1152	2.3	0
402	1152	2.4	0
402	1152	2.5	0
402	1152	2.6	0
402	1152	2.7	0
402	1152	2.8	0
402	1152	2.9	0
402	1152	3	0
402	1152	3.1	0
402	1152	3.2	0
402	1152	3.3	0
402	1152	3.4	0
402	1152	3.5	0
402	1152	3.6	0
402	1152	3.7	0
402	1152	3.8	0
402	1152	3.9	0
402	1152	4	0
402	1152	4.1	0
402	1152	4.2	0
402	1152	4.3	0
402	1152	4.4	0
402	1152	4.5	0
402	1152	4.6	0
402	1152	4.7	0
402	1152	4.8	0
402	1152	4.9	0
402	1152	5	0
402	1152	5.1	0
402	1152	5.2	0
402	1152	5.3	0
402	1152	5.4	0
402	1152	5.5	0
402	1152	5.6	0
402	1152	5.7	0
402	1152	5.8	0
402	1152	5.9	0
402	1152	6	0
402	1152	6.1	0
402	1152	6.2	0
402	1152	6.3	0
402	1152	6.4	0
402	1152	6.5	0
402	1152	6.6	0
402	1152	6.7	0
402	1152	6.8	0
402	1152	6.9	0
402	1152	7	0
402	1152	7.1	0
402	1152	7.2	0
402	1152	7.3	0
402	1152	7.4	0
402	1152	7.5	0
402	1152	7.6	0
402	1152	7.7	0
402	1152	7.8	0
402	1152	7.9	0
402	1152	8	0
402	1152	8.1	0
402	1152	8.2	0
402	1152	8.3	0
402	1152	8.4	0
402	1152	8.5	0
402	1152	8.6	0
402	1152	8.7	0
402	1152	8.8	0
402	1152	8.9	0
402	1152	9	0
402	1152	9.1	0
402	1152	9.2	0
402	1152	9.3	0
402	1152	9.4	0
402	1152	9.5	0
402	1152	9.6	0
402	1152	9.7	0
402	1152	9.8	0
402	1152	9.9	0
402	1152	10	0
402	1152	10.1	0
402	1152	10.2	0
402	1152	10.3	0
402	1152	10.4	0
402	1152	10.5	0
402	1152	10.6	0
402	1152	10.7	0
402	1152	10.8	0
402	1152	10.9	0
402	1152	11	0
402	1152	11.1	0
402	1152	11.2	0
402	1152	11.3	0
402	1152	11.4	0
402	1152	11.5	0
402	1152	11.6	0
402	1152	11.7	0
402	1152	11.8	0
402	1152	11.9	0
402	1152	12	0
402	1152	12.1	0
402	1152	12.2	0
402	1152	12.3	0
402	1152	12.4	0
402	1152	12.5	0
402	1152	12.6	0
402	1152	12.7	0
402	1152	12.8	0
402	1152	12.9	0
402	1152	13	0
402	1152	13.1	0
402	1152	13.2	0
402	1152	13.3	0
402	1152	13.4	0
402	1152	13.5	0
402	1152	13.6	0
402	1152	13.7	0
402	1152	13.8	0
402	1152	13.9	0
402	1152	14	0
402	1152	14.1	0
402	1152	14.2	0
402	1152	14.3	0
402	1152	14.4	0
402	1152	14.5	0
402	1152	14.6	0
402	1152	14.7	0
402	1152	14.8	0
402	1152	14.9	0
402	1152	15	0
402	1152	15.1	0
402	1152	15.2	0
402	1152	15.3	0
402	1152	15.4	0
402	1152	15.5	0
402	1152	15.6	0
402	1152	15.7	0
402	1152	15.8	0
402	1152	15.9	0
402	1152	16	0
402	1152	16.1	0
402	1152	16.2	0
402	1152	16.3	0
402	1152	16.4	0
402	1152	16.5	0
402	1152	16.6	0
402	1152	16.7	0
402	1152	16.8	0
402	1152	16.9	0
402	1152	17	0
402	1152	17.1	0
402	1152	17.2	0
402	1152	17.3	0
402	1152	17.4	0
402	1152	17.5	0
402	1152	17.6	0
402	1152	17.7	0
402	1152	17.8	0
402	1152	17.9	0
402	1152	18	0
402	1152	18.1	0
402	1152	18.2	0
402	1152	18.3	0
402	1152	18.4	0
402	1152	18.5	0
402	1152	18.6	0
402	1152	18.7	0
402	1152	18.8	0
402	1152	18.9	0
402	1152	19	0
402	1152	19.1	0
402	1152	19.2	0
402	1152	19.3	0
402	1152	19.4	0
402	1152	19.5	0
402	1152	19.6	0
402	1152	19.7	0
402	1152	19.8	0
402	1152	19.9	0
402	1152	20	0
402	1152	20.1	0
402	1152	20.2	0
402	1152	20.3	0
402	1152	20.4	0
402	1152	20.5	0
402	1152	20.6	0
402	1152	20.7	0
402	1152	20.8	0
402	1152	20.9	0
402	1152	21	0
402	1152	21.1	0
402	1152	21.2	0
402	1152	21.3	0
402	1152	21.4	0
402	1152	21.5	0
402	1152	21.6	0
402	1152	21.7	0
402	1152	21.8	0
402	1152	21.9	0
402	1152	22	0
402	1152	22.1	0
402	1152	22.2	0
402	1152	22.3	0
402	1152	22.4	0
402	1152	22.5	0
402	1152	22.6	0
402	1152	22.7	0
402	1152	22.8	0
402	1152	22.9	0
402	1152	23	0
402	1152	23.1	0
402	1152	23.2	0
402	1152	23.3	0
402	1152	23.4	0
402	1152	23.5	0
402	1152	23.6	0
402	1152	23.7	0
402	1152	23.8	0
402	1152	23.9	0
402	1152	24	0
402	1152	24.1	0
402	1152	24.2	0
402	1152	24.3	0
402	1152	24.4	0
402	1152	24.5	0
402	1152	24.6	0
402	1152	24.7	0
402	1152	24.8	0
402	1152	24.9	0
402	1152	25	0
402	1152	25.1	0
402	1152	25.2	0
402	1152	25.3	0
402	1152	25.4	0
402	1152	25.5	0
402	1152	25.6	0
402	1152	25.7	0
402	1152	25.8	0
402	1152	25.9	0
402	1152	26	0
402	1152	26.1	0
402	1152	26.2	0
402	1152	26.3	0
402	1152	26.4	0
402	1152	26.5	0
402	1152	26.6	0
402	1152	26.7	0
402	1152	26.8	0
402	1152	26.9	0
402	1152	27	0
402	1152	27.1	0

