file 224261 1652745553                                          
version 2
run plain-0-20220516-16:55:35-17108
attr configname plain
attr datetime 20220516-16:55:35
attr experiment plain
attr inifile omnetpp.ini
attr iterationvars ""
attr iterationvarsf ""
attr measurement ""
attr network Scenario
attr processid 17108
attr repetition 0
attr replication #0
attr resultdir results
attr runnumber 0
attr seedset 0
param *.node[*].numApps 1
param *.node[*].app[0].typename "\"org.car2x.veins.subprojects.veins_inet.VeinsInetSampleApplication\""
param *.node[*].app[0].interface "\"wlan0\""
param *.node[*].wlan[0].opMode "\"p\""
param *.node[*].wlan[0].radio.typename "\"Ieee80211DimensionalRadio\""
param *.node[*].wlan[0].radio.bandName "\"5.9 GHz\""
param *.node[*].wlan[0].radio.channelNumber 3
param *.node[*].wlan[0].radio.transmitter.power 20mW
param *.node[*].wlan[0].radio.bandwidth "10 MHz"
param *.node[*].wlan[*].radio.antenna.mobility.typename "\"AttachedMobility\""
param *.node[*].wlan[*].radio.antenna.mobility.mobilityModule "\"^.^.^.^.mobility\""
param *.node[*].wlan[*].radio.antenna.mobility.offsetX -2.5m
param *.node[*].wlan[*].radio.antenna.mobility.offsetZ 1.5m
param *.node[*].wlan[*].radio.antenna.mobility.constraintAreaMinX 0m
param *.node[*].wlan[*].radio.antenna.mobility.constraintAreaMaxX 0m
param *.node[*].wlan[*].radio.antenna.mobility.constraintAreaMinY 0m
param *.node[*].wlan[*].radio.antenna.mobility.constraintAreaMaxY 0m
param *.node[*].wlan[*].radio.antenna.mobility.constraintAreaMinZ 0m
param *.node[*].wlan[*].radio.antenna.mobility.constraintAreaMaxZ 0m
param *.node[*].ipv4.configurator.typename "\"HostAutoConfigurator\""
param *.node[*].ipv4.configurator.interfaces "\"wlan0\""
param *.node[*].ipv4.configurator.mcastGroups "\"224.0.0.1\""
param *.node[*].mobility.typename "\"VeinsInetMobility\""
param *.manager.updateInterval 0.1s
param *.manager.host "\"localhost\""
param *.manager.port 9999
param *.manager.autoShutdown true
param *.manager.launchConfig "xmldoc(\"FresnoState.launchd.xml\")"
param *.manager.moduleType "\"org.car2x.veins.subprojects.veins_inet.VeinsInetCar\""
param *.physicalEnvironment.config "xmldoc(\"obstacles.xml\")"
param *.radioMedium.obstacleLoss.typename "\"IdealObstacleLoss\""

vector 0 Scenario.node[0].wlan[0].radio radioMode:vector ETV
attr interpolationmode sample-hold
attr source radioModeChanged
attr title "Radio mode, vector"
vector 1 Scenario.node[0].wlan[0].radio radioChannel:vector ETV
attr interpolationmode sample-hold
attr source radioChannelChanged
attr title "Radio channel, vector"
vector 2 Scenario.node[0].wlan[0].radio receptionState:vector ETV
attr interpolationmode sample-hold
attr source receptionStateChanged
attr title "Radio reception state, vector"
vector 3 Scenario.node[0].wlan[0].mac.dcf.recoveryProcedure contentionWindowChanged:vector ETV
attr interpolationmode sample-hold
attr title "contention window, vector"
vector 4 Scenario.node[1].wlan[0].radio radioMode:vector ETV
attr interpolationmode sample-hold
attr source radioModeChanged
attr title "Radio mode, vector"
vector 5 Scenario.node[1].wlan[0].radio radioChannel:vector ETV
attr interpolationmode sample-hold
attr source radioChannelChanged
attr title "Radio channel, vector"
vector 6 Scenario.node[1].wlan[0].radio receptionState:vector ETV
attr interpolationmode sample-hold
attr source receptionStateChanged
attr title "Radio reception state, vector"
vector 7 Scenario.node[1].wlan[0].mac.dcf.recoveryProcedure contentionWindowChanged:vector ETV
attr interpolationmode sample-hold
attr title "contention window, vector"
vector 8 Scenario.node[2].wlan[0].radio radioMode:vector ETV
attr interpolationmode sample-hold
attr source radioModeChanged
attr title "Radio mode, vector"
vector 9 Scenario.node[2].wlan[0].radio radioChannel:vector ETV
attr interpolationmode sample-hold
attr source radioChannelChanged
attr title "Radio channel, vector"
vector 10 Scenario.node[2].wlan[0].radio receptionState:vector ETV
attr interpolationmode sample-hold
attr source receptionStateChanged
attr title "Radio reception state, vector"
vector 11 Scenario.node[2].wlan[0].mac.dcf.recoveryProcedure contentionWindowChanged:vector ETV
attr interpolationmode sample-hold
attr title "contention window, vector"
vector 12 Scenario.node[3].wlan[0].radio radioMode:vector ETV
attr interpolationmode sample-hold
attr source radioModeChanged
attr title "Radio mode, vector"
vector 13 Scenario.node[3].wlan[0].radio radioChannel:vector ETV
attr interpolationmode sample-hold
attr source radioChannelChanged
attr title "Radio channel, vector"
vector 14 Scenario.node[3].wlan[0].radio receptionState:vector ETV
attr interpolationmode sample-hold
attr source receptionStateChanged
attr title "Radio reception state, vector"
vector 15 Scenario.node[3].wlan[0].mac.dcf.recoveryProcedure contentionWindowChanged:vector ETV
attr interpolationmode sample-hold
attr title "contention window, vector"
vector 16 Scenario.node[4].wlan[0].radio radioMode:vector ETV
attr interpolationmode sample-hold
attr source radioModeChanged
attr title "Radio mode, vector"
vector 17 Scenario.node[4].wlan[0].radio radioChannel:vector ETV
attr interpolationmode sample-hold
attr source radioChannelChanged
attr title "Radio channel, vector"
vector 18 Scenario.node[4].wlan[0].radio receptionState:vector ETV
attr interpolationmode sample-hold
attr source receptionStateChanged
attr title "Radio reception state, vector"
vector 19 Scenario.node[4].wlan[0].mac.dcf.recoveryProcedure contentionWindowChanged:vector ETV
attr interpolationmode sample-hold
attr title "contention window, vector"
vector 20 Scenario.node[5].wlan[0].radio radioMode:vector ETV
attr interpolationmode sample-hold
attr source radioModeChanged
attr title "Radio mode, vector"
vector 21 Scenario.node[5].wlan[0].radio radioChannel:vector ETV
attr interpolationmode sample-hold
attr source radioChannelChanged
attr title "Radio channel, vector"
vector 22 Scenario.node[5].wlan[0].radio receptionState:vector ETV
attr interpolationmode sample-hold
attr source receptionStateChanged
attr title "Radio reception state, vector"
vector 23 Scenario.node[5].wlan[0].mac.dcf.recoveryProcedure contentionWindowChanged:vector ETV
attr interpolationmode sample-hold
attr title "contention window, vector"
vector 24 Scenario.node[6].wlan[0].radio radioMode:vector ETV
attr interpolationmode sample-hold
attr source radioModeChanged
attr title "Radio mode, vector"
vector 25 Scenario.node[6].wlan[0].radio radioChannel:vector ETV
attr interpolationmode sample-hold
attr source radioChannelChanged
attr title "Radio channel, vector"
vector 26 Scenario.node[6].wlan[0].radio receptionState:vector ETV
attr interpolationmode sample-hold
attr source receptionStateChanged
attr title "Radio reception state, vector"
vector 27 Scenario.node[6].wlan[0].mac.dcf.recoveryProcedure contentionWindowChanged:vector ETV
attr interpolationmode sample-hold
attr title "contention window, vector"
vector 28 Scenario.node[7].wlan[0].radio radioMode:vector ETV
attr interpolationmode sample-hold
attr source radioModeChanged
attr title "Radio mode, vector"
vector 29 Scenario.node[7].wlan[0].radio radioChannel:vector ETV
attr interpolationmode sample-hold
attr source radioChannelChanged
attr title "Radio channel, vector"
vector 30 Scenario.node[7].wlan[0].radio receptionState:vector ETV
attr interpolationmode sample-hold
attr source receptionStateChanged
attr title "Radio reception state, vector"
vector 31 Scenario.node[7].wlan[0].mac.dcf.recoveryProcedure contentionWindowChanged:vector ETV
attr interpolationmode sample-hold
attr title "contention window, vector"
vector 32 Scenario.node[8].wlan[0].radio radioMode:vector ETV
attr interpolationmode sample-hold
attr source radioModeChanged
attr title "Radio mode, vector"
vector 33 Scenario.node[8].wlan[0].radio radioChannel:vector ETV
attr interpolationmode sample-hold
attr source radioChannelChanged
attr title "Radio channel, vector"
vector 34 Scenario.node[8].wlan[0].radio receptionState:vector ETV
attr interpolationmode sample-hold
attr source receptionStateChanged
attr title "Radio reception state, vector"
vector 35 Scenario.node[8].wlan[0].mac.dcf.recoveryProcedure contentionWindowChanged:vector ETV
attr interpolationmode sample-hold
attr title "contention window, vector"
vector 36 Scenario.node[9].wlan[0].radio radioMode:vector ETV
attr interpolationmode sample-hold
attr source radioModeChanged
attr title "Radio mode, vector"
vector 37 Scenario.node[9].wlan[0].radio radioChannel:vector ETV
attr interpolationmode sample-hold
attr source radioChannelChanged
attr title "Radio channel, vector"
vector 38 Scenario.node[9].wlan[0].radio receptionState:vector ETV
attr interpolationmode sample-hold
attr source receptionStateChanged
attr title "Radio reception state, vector"
vector 39 Scenario.node[9].wlan[0].mac.dcf.recoveryProcedure contentionWindowChanged:vector ETV
attr interpolationmode sample-hold
attr title "contention window, vector"
vector 40 Scenario.node[10].wlan[0].radio radioMode:vector ETV
attr interpolationmode sample-hold
attr source radioModeChanged
attr title "Radio mode, vector"
vector 41 Scenario.node[10].wlan[0].radio radioChannel:vector ETV
attr interpolationmode sample-hold
attr source radioChannelChanged
attr title "Radio channel, vector"
vector 42 Scenario.node[10].wlan[0].radio receptionState:vector ETV
attr interpolationmode sample-hold
attr source receptionStateChanged
attr title "Radio reception state, vector"
vector 43 Scenario.node[10].wlan[0].mac.dcf.recoveryProcedure contentionWindowChanged:vector ETV
attr interpolationmode sample-hold
attr title "contention window, vector"
vector 44 Scenario.node[11].wlan[0].radio radioMode:vector ETV
attr interpolationmode sample-hold
attr source radioModeChanged
attr title "Radio mode, vector"
vector 45 Scenario.node[11].wlan[0].radio radioChannel:vector ETV
attr interpolationmode sample-hold
attr source radioChannelChanged
attr title "Radio channel, vector"
vector 46 Scenario.node[11].wlan[0].radio receptionState:vector ETV
attr interpolationmode sample-hold
attr source receptionStateChanged
attr title "Radio reception state, vector"
vector 47 Scenario.node[11].wlan[0].mac.dcf.recoveryProcedure contentionWindowChanged:vector ETV
attr interpolationmode sample-hold
attr title "contention window, vector"
vector 48 Scenario.node[12].wlan[0].radio radioMode:vector ETV
attr interpolationmode sample-hold
attr source radioModeChanged
attr title "Radio mode, vector"
vector 49 Scenario.node[12].wlan[0].radio radioChannel:vector ETV
attr interpolationmode sample-hold
attr source radioChannelChanged
attr title "Radio channel, vector"
vector 50 Scenario.node[12].wlan[0].radio receptionState:vector ETV
attr interpolationmode sample-hold
attr source receptionStateChanged
attr title "Radio reception state, vector"
vector 51 Scenario.node[12].wlan[0].mac.dcf.recoveryProcedure contentionWindowChanged:vector ETV
attr interpolationmode sample-hold
attr title "contention window, vector"
vector 52 Scenario.node[13].wlan[0].radio radioMode:vector ETV
attr interpolationmode sample-hold
attr source radioModeChanged
attr title "Radio mode, vector"
vector 53 Scenario.node[13].wlan[0].radio radioChannel:vector ETV
attr interpolationmode sample-hold
attr source radioChannelChanged
attr title "Radio channel, vector"
vector 54 Scenario.node[13].wlan[0].radio receptionState:vector ETV
attr interpolationmode sample-hold
attr source receptionStateChanged
attr title "Radio reception state, vector"
vector 55 Scenario.node[13].wlan[0].mac.dcf.recoveryProcedure contentionWindowChanged:vector ETV
attr interpolationmode sample-hold
attr title "contention window, vector"
vector 56 Scenario.node[14].wlan[0].radio radioMode:vector ETV
attr interpolationmode sample-hold
attr source radioModeChanged
attr title "Radio mode, vector"
vector 57 Scenario.node[14].wlan[0].radio radioChannel:vector ETV
attr interpolationmode sample-hold
attr source radioChannelChanged
attr title "Radio channel, vector"
vector 58 Scenario.node[14].wlan[0].radio receptionState:vector ETV
attr interpolationmode sample-hold
attr source receptionStateChanged
attr title "Radio reception state, vector"
vector 59 Scenario.node[14].wlan[0].mac.dcf.recoveryProcedure contentionWindowChanged:vector ETV
attr interpolationmode sample-hold
attr title "contention window, vector"
vector 60 Scenario.node[15].wlan[0].radio radioMode:vector ETV
attr interpolationmode sample-hold
attr source radioModeChanged
attr title "Radio mode, vector"
vector 61 Scenario.node[15].wlan[0].radio radioChannel:vector ETV
attr interpolationmode sample-hold
attr source radioChannelChanged
attr title "Radio channel, vector"
vector 62 Scenario.node[15].wlan[0].radio receptionState:vector ETV
attr interpolationmode sample-hold
attr source receptionStateChanged
attr title "Radio reception state, vector"
vector 63 Scenario.node[15].wlan[0].mac.dcf.recoveryProcedure contentionWindowChanged:vector ETV
attr interpolationmode sample-hold
attr title "contention window, vector"
vector 64 Scenario.node[16].wlan[0].radio radioMode:vector ETV
attr interpolationmode sample-hold
attr source radioModeChanged
attr title "Radio mode, vector"
vector 65 Scenario.node[16].wlan[0].radio radioChannel:vector ETV
attr interpolationmode sample-hold
attr source radioChannelChanged
attr title "Radio channel, vector"
vector 66 Scenario.node[16].wlan[0].radio receptionState:vector ETV
attr interpolationmode sample-hold
attr source receptionStateChanged
attr title "Radio reception state, vector"
vector 67 Scenario.node[16].wlan[0].mac.dcf.recoveryProcedure contentionWindowChanged:vector ETV
attr interpolationmode sample-hold
attr title "contention window, vector"
vector 68 Scenario.node[17].wlan[0].radio radioMode:vector ETV
attr interpolationmode sample-hold
attr source radioModeChanged
attr title "Radio mode, vector"
vector 69 Scenario.node[17].wlan[0].radio radioChannel:vector ETV
attr interpolationmode sample-hold
attr source radioChannelChanged
attr title "Radio channel, vector"
vector 70 Scenario.node[17].wlan[0].radio receptionState:vector ETV
attr interpolationmode sample-hold
attr source receptionStateChanged
attr title "Radio reception state, vector"
vector 71 Scenario.node[17].wlan[0].mac.dcf.recoveryProcedure contentionWindowChanged:vector ETV
attr interpolationmode sample-hold
attr title "contention window, vector"
vector 72 Scenario.node[18].wlan[0].radio radioMode:vector ETV
attr interpolationmode sample-hold
attr source radioModeChanged
attr title "Radio mode, vector"
vector 73 Scenario.node[18].wlan[0].radio radioChannel:vector ETV
attr interpolationmode sample-hold
attr source radioChannelChanged
attr title "Radio channel, vector"
vector 74 Scenario.node[18].wlan[0].radio receptionState:vector ETV
attr interpolationmode sample-hold
attr source receptionStateChanged
attr title "Radio reception state, vector"
vector 75 Scenario.node[18].wlan[0].mac.dcf.recoveryProcedure contentionWindowChanged:vector ETV
attr interpolationmode sample-hold
attr title "contention window, vector"
vector 76 Scenario.node[19].wlan[0].radio radioMode:vector ETV
attr interpolationmode sample-hold
attr source radioModeChanged
attr title "Radio mode, vector"
vector 77 Scenario.node[19].wlan[0].radio radioChannel:vector ETV
attr interpolationmode sample-hold
attr source radioChannelChanged
attr title "Radio channel, vector"
vector 78 Scenario.node[19].wlan[0].radio receptionState:vector ETV
attr interpolationmode sample-hold
attr source receptionStateChanged
attr title "Radio reception state, vector"
vector 79 Scenario.node[19].wlan[0].mac.dcf.recoveryProcedure contentionWindowChanged:vector ETV
attr interpolationmode sample-hold
attr title "contention window, vector"
vector 80 Scenario.node[20].wlan[0].radio radioMode:vector ETV
attr interpolationmode sample-hold
attr source radioModeChanged
attr title "Radio mode, vector"
vector 81 Scenario.node[20].wlan[0].radio radioChannel:vector ETV
attr interpolationmode sample-hold
attr source radioChannelChanged
attr title "Radio channel, vector"
vector 82 Scenario.node[20].wlan[0].radio receptionState:vector ETV
attr interpolationmode sample-hold
attr source receptionStateChanged
attr title "Radio reception state, vector"
vector 83 Scenario.node[20].wlan[0].mac.dcf.recoveryProcedure contentionWindowChanged:vector ETV
attr interpolationmode sample-hold
attr title "contention window, vector"
vector 84 Scenario.node[21].wlan[0].radio radioMode:vector ETV
attr interpolationmode sample-hold
attr source radioModeChanged
attr title "Radio mode, vector"
vector 85 Scenario.node[21].wlan[0].radio radioChannel:vector ETV
attr interpolationmode sample-hold
attr source radioChannelChanged
attr title "Radio channel, vector"
vector 86 Scenario.node[21].wlan[0].radio receptionState:vector ETV
attr interpolationmode sample-hold
attr source receptionStateChanged
attr title "Radio reception state, vector"
vector 87 Scenario.node[21].wlan[0].mac.dcf.recoveryProcedure contentionWindowChanged:vector ETV
attr interpolationmode sample-hold
attr title "contention window, vector"
vector 88 Scenario.node[22].wlan[0].radio radioMode:vector ETV
attr interpolationmode sample-hold
attr source radioModeChanged
attr title "Radio mode, vector"
vector 89 Scenario.node[22].wlan[0].radio radioChannel:vector ETV
attr interpolationmode sample-hold
attr source radioChannelChanged
attr title "Radio channel, vector"
vector 90 Scenario.node[22].wlan[0].radio receptionState:vector ETV
attr interpolationmode sample-hold
attr source receptionStateChanged
attr title "Radio reception state, vector"
vector 91 Scenario.node[22].wlan[0].mac.dcf.recoveryProcedure contentionWindowChanged:vector ETV
attr interpolationmode sample-hold
attr title "contention window, vector"
vector 92 Scenario.node[23].wlan[0].radio radioMode:vector ETV
attr interpolationmode sample-hold
attr source radioModeChanged
attr title "Radio mode, vector"
vector 93 Scenario.node[23].wlan[0].radio radioChannel:vector ETV
attr interpolationmode sample-hold
attr source radioChannelChanged
attr title "Radio channel, vector"
vector 94 Scenario.node[23].wlan[0].radio receptionState:vector ETV
attr interpolationmode sample-hold
attr source receptionStateChanged
attr title "Radio reception state, vector"
vector 95 Scenario.node[23].wlan[0].mac.dcf.recoveryProcedure contentionWindowChanged:vector ETV
attr interpolationmode sample-hold
attr title "contention window, vector"
vector 96 Scenario.node[24].wlan[0].radio radioMode:vector ETV
attr interpolationmode sample-hold
attr source radioModeChanged
attr title "Radio mode, vector"
vector 97 Scenario.node[24].wlan[0].radio radioChannel:vector ETV
attr interpolationmode sample-hold
attr source radioChannelChanged
attr title "Radio channel, vector"
vector 98 Scenario.node[24].wlan[0].radio receptionState:vector ETV
attr interpolationmode sample-hold
attr source receptionStateChanged
attr title "Radio reception state, vector"
vector 99 Scenario.node[24].wlan[0].mac.dcf.recoveryProcedure contentionWindowChanged:vector ETV
attr interpolationmode sample-hold
attr title "contention window, vector"
vector 100 Scenario.node[25].wlan[0].radio radioMode:vector ETV
attr interpolationmode sample-hold
attr source radioModeChanged
attr title "Radio mode, vector"
vector 101 Scenario.node[25].wlan[0].radio radioChannel:vector ETV
attr interpolationmode sample-hold
attr source radioChannelChanged
attr title "Radio channel, vector"
vector 102 Scenario.node[25].wlan[0].radio receptionState:vector ETV
attr interpolationmode sample-hold
attr source receptionStateChanged
attr title "Radio reception state, vector"
vector 103 Scenario.node[25].wlan[0].mac.dcf.recoveryProcedure contentionWindowChanged:vector ETV
attr interpolationmode sample-hold
attr title "contention window, vector"
vector 104 Scenario.node[26].wlan[0].radio radioMode:vector ETV
attr interpolationmode sample-hold
attr source radioModeChanged
attr title "Radio mode, vector"
vector 105 Scenario.node[26].wlan[0].radio radioChannel:vector ETV
attr interpolationmode sample-hold
attr source radioChannelChanged
attr title "Radio channel, vector"
vector 106 Scenario.node[26].wlan[0].radio receptionState:vector ETV
attr interpolationmode sample-hold
attr source receptionStateChanged
attr title "Radio reception state, vector"
vector 107 Scenario.node[26].wlan[0].mac.dcf.recoveryProcedure contentionWindowChanged:vector ETV
attr interpolationmode sample-hold
attr title "contention window, vector"
vector 108 Scenario.node[27].wlan[0].radio radioMode:vector ETV
attr interpolationmode sample-hold
attr source radioModeChanged
attr title "Radio mode, vector"
vector 109 Scenario.node[27].wlan[0].radio radioChannel:vector ETV
attr interpolationmode sample-hold
attr source radioChannelChanged
attr title "Radio channel, vector"
vector 110 Scenario.node[27].wlan[0].radio receptionState:vector ETV
attr interpolationmode sample-hold
attr source receptionStateChanged
attr title "Radio reception state, vector"
vector 111 Scenario.node[27].wlan[0].mac.dcf.recoveryProcedure contentionWindowChanged:vector ETV
attr interpolationmode sample-hold
attr title "contention window, vector"
vector 112 Scenario.node[28].wlan[0].radio radioMode:vector ETV
attr interpolationmode sample-hold
attr source radioModeChanged
attr title "Radio mode, vector"
vector 113 Scenario.node[28].wlan[0].radio radioChannel:vector ETV
attr interpolationmode sample-hold
attr source radioChannelChanged
attr title "Radio channel, vector"
vector 114 Scenario.node[28].wlan[0].radio receptionState:vector ETV
attr interpolationmode sample-hold
attr source receptionStateChanged
attr title "Radio reception state, vector"
vector 115 Scenario.node[28].wlan[0].mac.dcf.recoveryProcedure contentionWindowChanged:vector ETV
attr interpolationmode sample-hold
attr title "contention window, vector"
vector 116 Scenario.node[29].wlan[0].radio radioMode:vector ETV
attr interpolationmode sample-hold
attr source radioModeChanged
attr title "Radio mode, vector"
vector 117 Scenario.node[29].wlan[0].radio radioChannel:vector ETV
attr interpolationmode sample-hold
attr source radioChannelChanged
attr title "Radio channel, vector"
vector 118 Scenario.node[29].wlan[0].radio receptionState:vector ETV
attr interpolationmode sample-hold
attr source receptionStateChanged
attr title "Radio reception state, vector"
vector 119 Scenario.node[29].wlan[0].mac.dcf.recoveryProcedure contentionWindowChanged:vector ETV
attr interpolationmode sample-hold
attr title "contention window, vector"
vector 120 Scenario.node[30].wlan[0].radio radioMode:vector ETV
attr interpolationmode sample-hold
attr source radioModeChanged
attr title "Radio mode, vector"
vector 121 Scenario.node[30].wlan[0].radio radioChannel:vector ETV
attr interpolationmode sample-hold
attr source radioChannelChanged
attr title "Radio channel, vector"
vector 122 Scenario.node[30].wlan[0].radio receptionState:vector ETV
attr interpolationmode sample-hold
attr source receptionStateChanged
attr title "Radio reception state, vector"
vector 123 Scenario.node[30].wlan[0].mac.dcf.recoveryProcedure contentionWindowChanged:vector ETV
attr interpolationmode sample-hold
attr title "contention window, vector"
vector 124 Scenario.node[0].app[0] packetSent:vector(packetBytes) ETV
attr interpolationmode none
attr source packetSent
attr title "packets sent, vector(packetBytes)"
vector 125 Scenario.node[0].udp packetSent:vector(packetBytes) ETV
attr interpolationmode none
attr source packetSent
attr title "packets sent, vector(packetBytes)"
vector 126 Scenario.node[0].lo[0].lo rcvdPkFromHl:vector(packetBytes) ETV
attr interpolationmode none
attr source packetReceivedFromUpper
attr title "packets received from higher layer, vector(packetBytes)"
vector 127 Scenario.node[0].lo[0].lo passedUpPk:vector(packetBytes) ETV
attr interpolationmode none
attr source packetSentToUpper
attr title "packets passed to higher layer, vector(packetBytes)"
vector 128 Scenario.node[0].wlan[0].mac packetReceivedFromUpper:vector(packetBytes) ETV
attr interpolationmode none
attr title "packets received from upper layer, vector(packetBytes)"
vector 129 Scenario.node[0].wlan[0].mac.dcf.channelAccess.pendingQueue packetPushed:vector(packetBytes) ETV
attr interpolationmode none
attr title "packet pushed, vector(packetBytes)"
vector 130 Scenario.node[0].wlan[0].mac.dcf.channelAccess.pendingQueue queueLength:vector ETV
attr interpolationmode sample-hold
attr source "count(packetPushed) - count(packetPopped) - count(packetRemoved) - count(packetDropped)"
attr title "queue length, vector"
vector 131 Scenario.node[0].wlan[0].mac.dcf.channelAccess.contention backoffPeriodGenerated:vector ETV
attr interpolationmode none
attr title "backoff periods, vector"
vector 132 Scenario.node[0].wlan[0].mac.dcf.channelAccess.contention backoffActive:vector ETV
attr interpolationmode sample-hold
attr source count(backoffStarted)-count(backoffStopped)
attr title "backoff active, vector"
vector 133 Scenario.node[0].udp packetReceived:vector(packetBytes) ETV
attr interpolationmode none
attr source packetReceived
attr title "packets received, vector(packetBytes)"
vector 134 Scenario.node[0].udp passedUpPk:vector(count) ETV
attr interpolationmode none
attr source packetSentToUpper
attr title "packets passed up, vector(count)"
vector 135 Scenario.node[0].app[0] packetReceived:vector(packetBytes) ETV
attr interpolationmode none
attr source packetReceived
attr title "packets received, vector(packetBytes)"
vector 136 Scenario.node[0].app[0] throughput:vector ETV
attr source throughput(packetReceived)
attr title "throughput, vector"
attr unit bps
vector 137 Scenario.node[0].app[0] rcvdPkLifetime:vector ETV
attr interpolationmode none
attr source dataAge(packetReceived)
attr title "received packet lifetime, vector"
attr unit s
vector 138 Scenario.node[0].wlan[0].mac.dcf.channelAccess.pendingQueue packetPopped:vector(packetBytes) ETV
attr interpolationmode none
attr title "packet popped, vector(packetBytes)"
vector 139 Scenario.node[0].wlan[0].mac.dcf.channelAccess.pendingQueue queueingTime:vector ETV
attr interpolationmode none
attr source queueingTime(packetPopped)
attr title "queueing times, vector"
attr unit s
vector 140 Scenario.node[0].wlan[0].mac.dcf.channelAccess.inProgressFrames queueLength:vector ETV
attr interpolationmode sample-hold
attr source "count(packetEnqueued) - count(packetDequeued)"
attr title "queue length, vector"
vector 141 Scenario.node[0].wlan[0].mac.dcf datarateSelected:vector ETV
attr interpolationmode none
attr title "datarates selected, vector"
vector 142 Scenario.node[0].wlan[0].mac packetSentToLower:vector(packetBytes) ETV
attr interpolationmode none
attr title "packets sent to lower layer, vector(packetBytes)"
vector 143 Scenario.node[0].wlan[0].mac.dcf frameSequenceActive:vector ETV
attr interpolationmode sample-hold
attr source count(frameSequenceStarted)-count(frameSequenceFinished)
attr title "frame sequence active, vector"
vector 144 Scenario.node[0].wlan[0].radio transmissionState:vector ETV
attr interpolationmode sample-hold
attr source transmissionStateChanged
attr title "Radio transmission state, vector"
vector 145 Scenario.node[0].wlan[0].mac.dcf packetSentToPeer:vector(packetBytes) ETV
attr interpolationmode none
attr title "packets sent, vector(packetBytes)"
vector 146 Scenario.node[0].wlan[0].mac.dcf packetSentToPeerMulticast:vector(packetBytes) ETV
attr interpolationmode none
attr source ieee80211Multicast(packetSentToPeer)
attr title "packets sent: multicast, vector(packetBytes)"
vector 147 Scenario.node[0].wlan[0].mac.dcf packetSentToPeerWithoutRetry:vector(packetBytes) ETV
attr interpolationmode none
attr source ieee80211NotRetry(packetSentToPeer)
attr title "packets sent: without retry, vector(packetBytes)"
vector 148 Scenario.node[0].wlan[0].mac.dcf.channelAccess.inProgressFrames queueingTime:vector ETV
attr interpolationmode none
attr source queueingTime(packetDequeued)
attr title "queueing times, vector"
vector 149 Scenario.node[25].wlan[0].mac packetReceivedFromLower:vector(packetBytes) ETV
attr interpolationmode none
attr title "packets received from lower layer, vector(packetBytes)"
vector 150 Scenario.node[25].wlan[0].mac.dcf packetReceivedFromPeer:vector(packetBytes) ETV
attr interpolationmode none
attr title "packets received, vector(packetBytes)"
vector 151 Scenario.node[25].wlan[0].mac.dcf packetReceivedFromPeerMulticast:vector(packetBytes) ETV
attr interpolationmode none
attr source ieee80211Multicast(packetReceivedFromPeer)
attr title "packets received: multicast, vector(packetBytes)"
vector 152 Scenario.node[25].wlan[0].mac.dcf packetReceivedFromPeerWithoutRetry:vector(packetBytes) ETV
attr interpolationmode none
attr source ieee80211NotRetry(packetReceivedFromPeer)
attr title "packets received: without retry, vector(packetBytes)"
vector 153 Scenario.node[25].wlan[0].mac packetSentToUpper:vector(packetBytes) ETV
attr interpolationmode none
attr title "packets sent to upper layer, vector(packetBytes)"
vector 154 Scenario.node[25].udp packetReceived:vector(packetBytes) ETV
attr interpolationmode none
attr source packetReceived
attr title "packets received, vector(packetBytes)"
vector 155 Scenario.node[25].udp passedUpPk:vector(count) ETV
attr interpolationmode none
attr source packetSentToUpper
attr title "packets passed up, vector(count)"
vector 156 Scenario.node[25].app[0] packetReceived:vector(packetBytes) ETV
attr interpolationmode none
attr source packetReceived
attr title "packets received, vector(packetBytes)"
vector 157 Scenario.node[25].app[0] throughput:vector ETV
attr source throughput(packetReceived)
attr title "throughput, vector"
attr unit bps
vector 158 Scenario.node[25].app[0] rcvdPkLifetime:vector ETV
attr interpolationmode none
attr source dataAge(packetReceived)
attr title "received packet lifetime, vector"
attr unit s
vector 159 Scenario.node[25].app[0] packetSent:vector(packetBytes) ETV
attr interpolationmode none
attr source packetSent
attr title "packets sent, vector(packetBytes)"
vector 160 Scenario.node[25].udp packetSent:vector(packetBytes) ETV
attr interpolationmode none
attr source packetSent
attr title "packets sent, vector(packetBytes)"
vector 161 Scenario.node[25].lo[0].lo rcvdPkFromHl:vector(packetBytes) ETV
attr interpolationmode none
attr source packetReceivedFromUpper
attr title "packets received from higher layer, vector(packetBytes)"
vector 162 Scenario.node[25].lo[0].lo passedUpPk:vector(packetBytes) ETV
attr interpolationmode none
attr source packetSentToUpper
attr title "packets passed to higher layer, vector(packetBytes)"
vector 163 Scenario.node[25].wlan[0].mac packetReceivedFromUpper:vector(packetBytes) ETV
attr interpolationmode none
attr title "packets received from upper layer, vector(packetBytes)"
vector 164 Scenario.node[25].wlan[0].mac.dcf.channelAccess.pendingQueue packetPushed:vector(packetBytes) ETV
attr interpolationmode none
attr title "packet pushed, vector(packetBytes)"
vector 165 Scenario.node[25].wlan[0].mac.dcf.channelAccess.pendingQueue queueLength:vector ETV
attr interpolationmode sample-hold
attr source "count(packetPushed) - count(packetPopped) - count(packetRemoved) - count(packetDropped)"
attr title "queue length, vector"
vector 166 Scenario.node[25].wlan[0].mac.dcf.channelAccess.contention backoffPeriodGenerated:vector ETV
attr interpolationmode none
attr title "backoff periods, vector"
vector 167 Scenario.node[25].wlan[0].mac.dcf.channelAccess.contention backoffActive:vector ETV
attr interpolationmode sample-hold
attr source count(backoffStarted)-count(backoffStopped)
attr title "backoff active, vector"
vector 168 Scenario.node[24].wlan[0].mac packetReceivedFromLower:vector(packetBytes) ETV
attr interpolationmode none
attr title "packets received from lower layer, vector(packetBytes)"
vector 169 Scenario.node[24].wlan[0].mac.dcf packetReceivedFromPeer:vector(packetBytes) ETV
attr interpolationmode none
attr title "packets received, vector(packetBytes)"
vector 170 Scenario.node[24].wlan[0].mac.dcf packetReceivedFromPeerMulticast:vector(packetBytes) ETV
attr interpolationmode none
attr source ieee80211Multicast(packetReceivedFromPeer)
attr title "packets received: multicast, vector(packetBytes)"
vector 171 Scenario.node[24].wlan[0].mac.dcf packetReceivedFromPeerWithoutRetry:vector(packetBytes) ETV
attr interpolationmode none
attr source ieee80211NotRetry(packetReceivedFromPeer)
attr title "packets received: without retry, vector(packetBytes)"
vector 172 Scenario.node[24].wlan[0].mac packetSentToUpper:vector(packetBytes) ETV
attr interpolationmode none
attr title "packets sent to upper layer, vector(packetBytes)"
vector 173 Scenario.node[24].udp packetReceived:vector(packetBytes) ETV
attr interpolationmode none
attr source packetReceived
attr title "packets received, vector(packetBytes)"
vector 174 Scenario.node[24].udp passedUpPk:vector(count) ETV
attr interpolationmode none
attr source packetSentToUpper
attr title "packets passed up, vector(count)"
vector 175 Scenario.node[24].app[0] packetReceived:vector(packetBytes) ETV
attr interpolationmode none
attr source packetReceived
attr title "packets received, vector(packetBytes)"
vector 176 Scenario.node[24].app[0] throughput:vector ETV
attr source throughput(packetReceived)
attr title "throughput, vector"
attr unit bps
vector 177 Scenario.node[24].app[0] rcvdPkLifetime:vector ETV
attr interpolationmode none
attr source dataAge(packetReceived)
attr title "received packet lifetime, vector"
attr unit s
vector 178 Scenario.node[24].app[0] packetSent:vector(packetBytes) ETV
attr interpolationmode none
attr source packetSent
attr title "packets sent, vector(packetBytes)"
vector 179 Scenario.node[24].udp packetSent:vector(packetBytes) ETV
attr interpolationmode none
attr source packetSent
attr title "packets sent, vector(packetBytes)"
vector 180 Scenario.node[24].lo[0].lo rcvdPkFromHl:vector(packetBytes) ETV
attr interpolationmode none
attr source packetReceivedFromUpper
attr title "packets received from higher layer, vector(packetBytes)"
vector 181 Scenario.node[24].lo[0].lo passedUpPk:vector(packetBytes) ETV
attr interpolationmode none
attr source packetSentToUpper
attr title "packets passed to higher layer, vector(packetBytes)"
vector 182 Scenario.node[24].wlan[0].mac packetReceivedFromUpper:vector(packetBytes) ETV
attr interpolationmode none
attr title "packets received from upper layer, vector(packetBytes)"
vector 183 Scenario.node[24].wlan[0].mac.dcf.channelAccess.pendingQueue packetPushed:vector(packetBytes) ETV
attr interpolationmode none
attr title "packet pushed, vector(packetBytes)"
vector 184 Scenario.node[24].wlan[0].mac.dcf.channelAccess.pendingQueue queueLength:vector ETV
attr interpolationmode sample-hold
attr source "count(packetPushed) - count(packetPopped) - count(packetRemoved) - count(packetDropped)"
attr title "queue length, vector"
vector 185 Scenario.node[24].wlan[0].mac.dcf.channelAccess.contention backoffPeriodGenerated:vector ETV
attr interpolationmode none
attr title "backoff periods, vector"
vector 186 Scenario.node[24].wlan[0].mac.dcf.channelAccess.contention backoffActive:vector ETV
attr interpolationmode sample-hold
attr source count(backoffStarted)-count(backoffStopped)
attr title "backoff active, vector"
vector 187 Scenario.node[22].wlan[0].mac packetReceivedFromLower:vector(packetBytes) ETV
attr interpolationmode none
attr title "packets received from lower layer, vector(packetBytes)"
vector 188 Scenario.node[22].wlan[0].mac.dcf packetReceivedFromPeer:vector(packetBytes) ETV
attr interpolationmode none
attr title "packets received, vector(packetBytes)"
vector 189 Scenario.node[22].wlan[0].mac.dcf packetReceivedFromPeerMulticast:vector(packetBytes) ETV
attr interpolationmode none
attr source ieee80211Multicast(packetReceivedFromPeer)
attr title "packets received: multicast, vector(packetBytes)"
vector 190 Scenario.node[22].wlan[0].mac.dcf packetReceivedFromPeerWithoutRetry:vector(packetBytes) ETV
attr interpolationmode none
attr source ieee80211NotRetry(packetReceivedFromPeer)
attr title "packets received: without retry, vector(packetBytes)"
vector 191 Scenario.node[22].wlan[0].mac packetSentToUpper:vector(packetBytes) ETV
attr interpolationmode none
attr title "packets sent to upper layer, vector(packetBytes)"
vector 192 Scenario.node[22].udp packetReceived:vector(packetBytes) ETV
attr interpolationmode none
attr source packetReceived
attr title "packets received, vector(packetBytes)"
vector 193 Scenario.node[22].udp passedUpPk:vector(count) ETV
attr interpolationmode none
attr source packetSentToUpper
attr title "packets passed up, vector(count)"
vector 194 Scenario.node[22].app[0] packetReceived:vector(packetBytes) ETV
attr interpolationmode none
attr source packetReceived
attr title "packets received, vector(packetBytes)"
vector 195 Scenario.node[22].app[0] throughput:vector ETV
attr source throughput(packetReceived)
attr title "throughput, vector"
attr unit bps
vector 196 Scenario.node[22].app[0] rcvdPkLifetime:vector ETV
attr interpolationmode none
attr source dataAge(packetReceived)
attr title "received packet lifetime, vector"
attr unit s
vector 197 Scenario.node[22].app[0] packetSent:vector(packetBytes) ETV
attr interpolationmode none
attr source packetSent
attr title "packets sent, vector(packetBytes)"
vector 198 Scenario.node[22].udp packetSent:vector(packetBytes) ETV
attr interpolationmode none
attr source packetSent
attr title "packets sent, vector(packetBytes)"
vector 199 Scenario.node[22].lo[0].lo rcvdPkFromHl:vector(packetBytes) ETV
attr interpolationmode none
attr source packetReceivedFromUpper
attr title "packets received from higher layer, vector(packetBytes)"
vector 200 Scenario.node[22].lo[0].lo passedUpPk:vector(packetBytes) ETV
attr interpolationmode none
attr source packetSentToUpper
attr title "packets passed to higher layer, vector(packetBytes)"
vector 201 Scenario.node[22].wlan[0].mac packetReceivedFromUpper:vector(packetBytes) ETV
attr interpolationmode none
attr title "packets received from upper layer, vector(packetBytes)"
vector 202 Scenario.node[22].wlan[0].mac.dcf.channelAccess.pendingQueue packetPushed:vector(packetBytes) ETV
attr interpolationmode none
attr title "packet pushed, vector(packetBytes)"
vector 203 Scenario.node[22].wlan[0].mac.dcf.channelAccess.pendingQueue queueLength:vector ETV
attr interpolationmode sample-hold
attr source "count(packetPushed) - count(packetPopped) - count(packetRemoved) - count(packetDropped)"
attr title "queue length, vector"
vector 204 Scenario.node[22].wlan[0].mac.dcf.channelAccess.contention backoffPeriodGenerated:vector ETV
attr interpolationmode none
attr title "backoff periods, vector"
vector 205 Scenario.node[22].wlan[0].mac.dcf.channelAccess.contention backoffActive:vector ETV
attr interpolationmode sample-hold
attr source count(backoffStarted)-count(backoffStopped)
attr title "backoff active, vector"
vector 206 Scenario.node[15].wlan[0].mac packetReceivedFromLower:vector(packetBytes) ETV
attr interpolationmode none
attr title "packets received from lower layer, vector(packetBytes)"
vector 207 Scenario.node[15].wlan[0].mac.dcf packetReceivedFromPeer:vector(packetBytes) ETV
attr interpolationmode none
attr title "packets received, vector(packetBytes)"
vector 208 Scenario.node[15].wlan[0].mac.dcf packetReceivedFromPeerMulticast:vector(packetBytes) ETV
attr interpolationmode none
attr source ieee80211Multicast(packetReceivedFromPeer)
attr title "packets received: multicast, vector(packetBytes)"
vector 209 Scenario.node[15].wlan[0].mac.dcf packetReceivedFromPeerWithoutRetry:vector(packetBytes) ETV
attr interpolationmode none
attr source ieee80211NotRetry(packetReceivedFromPeer)
attr title "packets received: without retry, vector(packetBytes)"
vector 210 Scenario.node[15].wlan[0].mac packetSentToUpper:vector(packetBytes) ETV
attr interpolationmode none
attr title "packets sent to upper layer, vector(packetBytes)"
vector 211 Scenario.node[15].udp packetReceived:vector(packetBytes) ETV
attr interpolationmode none
attr source packetReceived
attr title "packets received, vector(packetBytes)"
vector 212 Scenario.node[15].udp passedUpPk:vector(count) ETV
attr interpolationmode none
attr source packetSentToUpper
attr title "packets passed up, vector(count)"
vector 213 Scenario.node[15].app[0] packetReceived:vector(packetBytes) ETV
attr interpolationmode none
attr source packetReceived
attr title "packets received, vector(packetBytes)"
vector 214 Scenario.node[15].app[0] throughput:vector ETV
attr source throughput(packetReceived)
attr title "throughput, vector"
attr unit bps
vector 215 Scenario.node[15].app[0] rcvdPkLifetime:vector ETV
attr interpolationmode none
attr source dataAge(packetReceived)
attr title "received packet lifetime, vector"
attr unit s
vector 216 Scenario.node[15].app[0] packetSent:vector(packetBytes) ETV
attr interpolationmode none
attr source packetSent
attr title "packets sent, vector(packetBytes)"
vector 217 Scenario.node[15].udp packetSent:vector(packetBytes) ETV
attr interpolationmode none
attr source packetSent
attr title "packets sent, vector(packetBytes)"
vector 218 Scenario.node[15].lo[0].lo rcvdPkFromHl:vector(packetBytes) ETV
attr interpolationmode none
attr source packetReceivedFromUpper
attr title "packets received from higher layer, vector(packetBytes)"
vector 219 Scenario.node[15].lo[0].lo passedUpPk:vector(packetBytes) ETV
attr interpolationmode none
attr source packetSentToUpper
attr title "packets passed to higher layer, vector(packetBytes)"
vector 220 Scenario.node[15].wlan[0].mac packetReceivedFromUpper:vector(packetBytes) ETV
attr interpolationmode none
attr title "packets received from upper layer, vector(packetBytes)"
vector 221 Scenario.node[15].wlan[0].mac.dcf.channelAccess.pendingQueue packetPushed:vector(packetBytes) ETV
attr interpolationmode none
attr title "packet pushed, vector(packetBytes)"
vector 222 Scenario.node[15].wlan[0].mac.dcf.channelAccess.pendingQueue queueLength:vector ETV
attr interpolationmode sample-hold
attr source "count(packetPushed) - count(packetPopped) - count(packetRemoved) - count(packetDropped)"
attr title "queue length, vector"
vector 223 Scenario.node[15].wlan[0].mac.dcf.channelAccess.contention backoffPeriodGenerated:vector ETV
attr interpolationmode none
attr title "backoff periods, vector"
vector 224 Scenario.node[15].wlan[0].mac.dcf.channelAccess.contention backoffActive:vector ETV
attr interpolationmode sample-hold
attr source count(backoffStarted)-count(backoffStopped)
attr title "backoff active, vector"
vector 225 Scenario.node[6].wlan[0].mac packetReceivedFromLower:vector(packetBytes) ETV
attr interpolationmode none
attr title "packets received from lower layer, vector(packetBytes)"
vector 226 Scenario.node[6].wlan[0].mac.dcf packetReceivedFromPeer:vector(packetBytes) ETV
attr interpolationmode none
attr title "packets received, vector(packetBytes)"
vector 227 Scenario.node[6].wlan[0].mac.dcf packetReceivedFromPeerMulticast:vector(packetBytes) ETV
attr interpolationmode none
attr source ieee80211Multicast(packetReceivedFromPeer)
attr title "packets received: multicast, vector(packetBytes)"
vector 228 Scenario.node[6].wlan[0].mac.dcf packetReceivedFromPeerWithoutRetry:vector(packetBytes) ETV
attr interpolationmode none
attr source ieee80211NotRetry(packetReceivedFromPeer)
attr title "packets received: without retry, vector(packetBytes)"
vector 229 Scenario.node[6].wlan[0].mac packetSentToUpper:vector(packetBytes) ETV
attr interpolationmode none
attr title "packets sent to upper layer, vector(packetBytes)"
vector 230 Scenario.node[6].udp packetReceived:vector(packetBytes) ETV
attr interpolationmode none
attr source packetReceived
attr title "packets received, vector(packetBytes)"
vector 231 Scenario.node[6].udp passedUpPk:vector(count) ETV
attr interpolationmode none
attr source packetSentToUpper
attr title "packets passed up, vector(count)"
vector 232 Scenario.node[6].app[0] packetReceived:vector(packetBytes) ETV
attr interpolationmode none
attr source packetReceived
attr title "packets received, vector(packetBytes)"
vector 233 Scenario.node[6].app[0] throughput:vector ETV
attr source throughput(packetReceived)
attr title "throughput, vector"
attr unit bps
vector 234 Scenario.node[6].app[0] rcvdPkLifetime:vector ETV
attr interpolationmode none
attr source dataAge(packetReceived)
attr title "received packet lifetime, vector"
attr unit s
vector 235 Scenario.node[6].app[0] packetSent:vector(packetBytes) ETV
attr interpolationmode none
attr source packetSent
attr title "packets sent, vector(packetBytes)"
vector 236 Scenario.node[6].udp packetSent:vector(packetBytes) ETV
attr interpolationmode none
attr source packetSent
attr title "packets sent, vector(packetBytes)"
vector 237 Scenario.node[6].lo[0].lo rcvdPkFromHl:vector(packetBytes) ETV
attr interpolationmode none
attr source packetReceivedFromUpper
attr title "packets received from higher layer, vector(packetBytes)"
vector 238 Scenario.node[6].lo[0].lo passedUpPk:vector(packetBytes) ETV
attr interpolationmode none
attr source packetSentToUpper
attr title "packets passed to higher layer, vector(packetBytes)"
vector 239 Scenario.node[6].wlan[0].mac packetReceivedFromUpper:vector(packetBytes) ETV
attr interpolationmode none
attr title "packets received from upper layer, vector(packetBytes)"
vector 240 Scenario.node[6].wlan[0].mac.dcf.channelAccess.pendingQueue packetPushed:vector(packetBytes) ETV
attr interpolationmode none
attr title "packet pushed, vector(packetBytes)"
vector 241 Scenario.node[6].wlan[0].mac.dcf.channelAccess.pendingQueue queueLength:vector ETV
attr interpolationmode sample-hold
attr source "count(packetPushed) - count(packetPopped) - count(packetRemoved) - count(packetDropped)"
attr title "queue length, vector"
vector 242 Scenario.node[6].wlan[0].mac.dcf.channelAccess.contention backoffPeriodGenerated:vector ETV
attr interpolationmode none
attr title "backoff periods, vector"
vector 243 Scenario.node[6].wlan[0].mac.dcf.channelAccess.contention backoffActive:vector ETV
attr interpolationmode sample-hold
attr source count(backoffStarted)-count(backoffStopped)
attr title "backoff active, vector"
vector 244 Scenario.node[4].wlan[0].mac packetReceivedFromLower:vector(packetBytes) ETV
attr interpolationmode none
attr title "packets received from lower layer, vector(packetBytes)"
vector 245 Scenario.node[4].wlan[0].mac.dcf packetReceivedFromPeer:vector(packetBytes) ETV
attr interpolationmode none
attr title "packets received, vector(packetBytes)"
vector 246 Scenario.node[4].wlan[0].mac.dcf packetReceivedFromPeerMulticast:vector(packetBytes) ETV
attr interpolationmode none
attr source ieee80211Multicast(packetReceivedFromPeer)
attr title "packets received: multicast, vector(packetBytes)"
vector 247 Scenario.node[4].wlan[0].mac.dcf packetReceivedFromPeerWithoutRetry:vector(packetBytes) ETV
attr interpolationmode none
attr source ieee80211NotRetry(packetReceivedFromPeer)
attr title "packets received: without retry, vector(packetBytes)"
vector 248 Scenario.node[4].wlan[0].mac packetSentToUpper:vector(packetBytes) ETV
attr interpolationmode none
attr title "packets sent to upper layer, vector(packetBytes)"
vector 249 Scenario.node[4].udp packetReceived:vector(packetBytes) ETV
attr interpolationmode none
attr source packetReceived
attr title "packets received, vector(packetBytes)"
vector 250 Scenario.node[4].udp passedUpPk:vector(count) ETV
attr interpolationmode none
attr source packetSentToUpper
attr title "packets passed up, vector(count)"
vector 251 Scenario.node[4].app[0] packetReceived:vector(packetBytes) ETV
attr interpolationmode none
attr source packetReceived
attr title "packets received, vector(packetBytes)"
vector 252 Scenario.node[4].app[0] throughput:vector ETV
attr source throughput(packetReceived)
attr title "throughput, vector"
attr unit bps
vector 253 Scenario.node[4].app[0] rcvdPkLifetime:vector ETV
attr interpolationmode none
attr source dataAge(packetReceived)
attr title "received packet lifetime, vector"
attr unit s
vector 254 Scenario.node[4].app[0] packetSent:vector(packetBytes) ETV
attr interpolationmode none
attr source packetSent
attr title "packets sent, vector(packetBytes)"
vector 255 Scenario.node[4].udp packetSent:vector(packetBytes) ETV
attr interpolationmode none
attr source packetSent
attr title "packets sent, vector(packetBytes)"
vector 256 Scenario.node[4].lo[0].lo rcvdPkFromHl:vector(packetBytes) ETV
attr interpolationmode none
attr source packetReceivedFromUpper
attr title "packets received from higher layer, vector(packetBytes)"
vector 257 Scenario.node[4].lo[0].lo passedUpPk:vector(packetBytes) ETV
attr interpolationmode none
attr source packetSentToUpper
attr title "packets passed to higher layer, vector(packetBytes)"
vector 258 Scenario.node[4].wlan[0].mac packetReceivedFromUpper:vector(packetBytes) ETV
attr interpolationmode none
attr title "packets received from upper layer, vector(packetBytes)"
vector 259 Scenario.node[4].wlan[0].mac.dcf.channelAccess.pendingQueue packetPushed:vector(packetBytes) ETV
attr interpolationmode none
attr title "packet pushed, vector(packetBytes)"
vector 260 Scenario.node[4].wlan[0].mac.dcf.channelAccess.pendingQueue queueLength:vector ETV
attr interpolationmode sample-hold
attr source "count(packetPushed) - count(packetPopped) - count(packetRemoved) - count(packetDropped)"
attr title "queue length, vector"
vector 261 Scenario.node[4].wlan[0].mac.dcf.channelAccess.contention backoffPeriodGenerated:vector ETV
attr interpolationmode none
attr title "backoff periods, vector"
vector 262 Scenario.node[4].wlan[0].mac.dcf.channelAccess.contention backoffActive:vector ETV
attr interpolationmode sample-hold
attr source count(backoffStarted)-count(backoffStopped)
attr title "backoff active, vector"
vector 263 Scenario.node[25].wlan[0].mac.dcf.channelAccess.pendingQueue packetPopped:vector(packetBytes) ETV
attr interpolationmode none
attr title "packet popped, vector(packetBytes)"
vector 264 Scenario.node[25].wlan[0].mac.dcf.channelAccess.pendingQueue queueingTime:vector ETV
attr interpolationmode none
attr source queueingTime(packetPopped)
attr title "queueing times, vector"
attr unit s
vector 265 Scenario.node[25].wlan[0].mac.dcf.channelAccess.inProgressFrames queueLength:vector ETV
attr interpolationmode sample-hold
attr source "count(packetEnqueued) - count(packetDequeued)"
attr title "queue length, vector"
vector 266 Scenario.node[25].wlan[0].mac.dcf datarateSelected:vector ETV
attr interpolationmode none
attr title "datarates selected, vector"
vector 267 Scenario.node[25].wlan[0].mac packetSentToLower:vector(packetBytes) ETV
attr interpolationmode none
attr title "packets sent to lower layer, vector(packetBytes)"
vector 268 Scenario.node[25].wlan[0].mac.dcf frameSequenceActive:vector ETV
attr interpolationmode sample-hold
attr source count(frameSequenceStarted)-count(frameSequenceFinished)
attr title "frame sequence active, vector"
vector 269 Scenario.node[25].wlan[0].radio transmissionState:vector ETV
attr interpolationmode sample-hold
attr source transmissionStateChanged
attr title "Radio transmission state, vector"
vector 270 Scenario.node[4].wlan[0].mac.dcf.channelAccess.pendingQueue packetPopped:vector(packetBytes) ETV
attr interpolationmode none
attr title "packet popped, vector(packetBytes)"
vector 271 Scenario.node[4].wlan[0].mac.dcf.channelAccess.pendingQueue queueingTime:vector ETV
attr interpolationmode none
attr source queueingTime(packetPopped)
attr title "queueing times, vector"
attr unit s
vector 272 Scenario.node[4].wlan[0].mac.dcf.channelAccess.inProgressFrames queueLength:vector ETV
attr interpolationmode sample-hold
attr source "count(packetEnqueued) - count(packetDequeued)"
attr title "queue length, vector"
vector 273 Scenario.node[4].wlan[0].mac.dcf datarateSelected:vector ETV
attr interpolationmode none
attr title "datarates selected, vector"
vector 274 Scenario.node[4].wlan[0].mac packetSentToLower:vector(packetBytes) ETV
attr interpolationmode none
attr title "packets sent to lower layer, vector(packetBytes)"
vector 275 Scenario.node[4].wlan[0].mac.dcf frameSequenceActive:vector ETV
attr interpolationmode sample-hold
attr source count(frameSequenceStarted)-count(frameSequenceFinished)
attr title "frame sequence active, vector"
vector 276 Scenario.node[4].wlan[0].radio transmissionState:vector ETV
attr interpolationmode sample-hold
attr source transmissionStateChanged
attr title "Radio transmission state, vector"
vector 277 Scenario.node[25].wlan[0].mac.dcf packetSentToPeer:vector(packetBytes) ETV
attr interpolationmode none
attr title "packets sent, vector(packetBytes)"
vector 278 Scenario.node[25].wlan[0].mac.dcf packetSentToPeerMulticast:vector(packetBytes) ETV
attr interpolationmode none
attr source ieee80211Multicast(packetSentToPeer)
attr title "packets sent: multicast, vector(packetBytes)"
vector 279 Scenario.node[25].wlan[0].mac.dcf packetSentToPeerWithoutRetry:vector(packetBytes) ETV
attr interpolationmode none
attr source ieee80211NotRetry(packetSentToPeer)
attr title "packets sent: without retry, vector(packetBytes)"
vector 280 Scenario.node[25].wlan[0].mac.dcf.channelAccess.inProgressFrames queueingTime:vector ETV
attr interpolationmode none
attr source queueingTime(packetDequeued)
attr title "queueing times, vector"
vector 281 Scenario.node[0].wlan[0].mac packetReceivedFromLower:vector(packetBytes) ETV
attr interpolationmode none
attr title "packets received from lower layer, vector(packetBytes)"
vector 282 Scenario.node[0].wlan[0].mac.dcf packetReceivedFromPeer:vector(packetBytes) ETV
attr interpolationmode none
attr title "packets received, vector(packetBytes)"
vector 283 Scenario.node[0].wlan[0].mac.dcf packetReceivedFromPeerMulticast:vector(packetBytes) ETV
attr interpolationmode none
attr source ieee80211Multicast(packetReceivedFromPeer)
attr title "packets received: multicast, vector(packetBytes)"
vector 284 Scenario.node[0].wlan[0].mac.dcf packetReceivedFromPeerWithoutRetry:vector(packetBytes) ETV
attr interpolationmode none
attr source ieee80211NotRetry(packetReceivedFromPeer)
attr title "packets received: without retry, vector(packetBytes)"
vector 285 Scenario.node[0].wlan[0].mac packetSentToUpper:vector(packetBytes) ETV
attr interpolationmode none
attr title "packets sent to upper layer, vector(packetBytes)"
vector 286 Scenario.node[22].wlan[0].mac packetDrop:vector(packetBytes) ETV
attr interpolationmode none
attr source packetDropped
attr title "packet drops, vector(packetBytes)"
vector 287 Scenario.node[22].wlan[0].mac packetDropIncorrectlyReceived:vector(packetBytes) ETV
attr interpolationmode none
attr source packetDropReasonIsIncorrectlyReceived(packetDropped)
attr title "packet drops: incorrectly received, vector(packetBytes)"
vector 288 Scenario.node[24].wlan[0].mac packetDrop:vector(packetBytes) ETV
attr interpolationmode none
attr source packetDropped
attr title "packet drops, vector(packetBytes)"
vector 289 Scenario.node[24].wlan[0].mac packetDropIncorrectlyReceived:vector(packetBytes) ETV
attr interpolationmode none
attr source packetDropReasonIsIncorrectlyReceived(packetDropped)
attr title "packet drops: incorrectly received, vector(packetBytes)"
vector 290 Scenario.node[15].wlan[0].mac packetDrop:vector(packetBytes) ETV
attr interpolationmode none
attr source packetDropped
attr title "packet drops, vector(packetBytes)"
vector 291 Scenario.node[15].wlan[0].mac packetDropIncorrectlyReceived:vector(packetBytes) ETV
attr interpolationmode none
attr source packetDropReasonIsIncorrectlyReceived(packetDropped)
attr title "packet drops: incorrectly received, vector(packetBytes)"
vector 292 Scenario.node[6].wlan[0].mac packetDrop:vector(packetBytes) ETV
attr interpolationmode none
attr source packetDropped
attr title "packet drops, vector(packetBytes)"
vector 293 Scenario.node[6].wlan[0].mac packetDropIncorrectlyReceived:vector(packetBytes) ETV
attr interpolationmode none
attr source packetDropReasonIsIncorrectlyReceived(packetDropped)
attr title "packet drops: incorrectly received, vector(packetBytes)"
vector 294 Scenario.node[8].wlan[0].mac packetReceivedFromLower:vector(packetBytes) ETV
attr interpolationmode none
attr title "packets received from lower layer, vector(packetBytes)"
vector 295 Scenario.node[8].wlan[0].mac packetDrop:vector(packetBytes) ETV
attr interpolationmode none
attr source packetDropped
attr title "packet drops, vector(packetBytes)"
vector 296 Scenario.node[8].wlan[0].mac packetDropIncorrectlyReceived:vector(packetBytes) ETV
attr interpolationmode none
attr source packetDropReasonIsIncorrectlyReceived(packetDropped)
attr title "packet drops: incorrectly received, vector(packetBytes)"
vector 297 Scenario.node[4].wlan[0].mac.dcf packetSentToPeer:vector(packetBytes) ETV
attr interpolationmode none
attr title "packets sent, vector(packetBytes)"
vector 298 Scenario.node[4].wlan[0].mac.dcf packetSentToPeerMulticast:vector(packetBytes) ETV
attr interpolationmode none
attr source ieee80211Multicast(packetSentToPeer)
attr title "packets sent: multicast, vector(packetBytes)"
vector 299 Scenario.node[4].wlan[0].mac.dcf packetSentToPeerWithoutRetry:vector(packetBytes) ETV
attr interpolationmode none
attr source ieee80211NotRetry(packetSentToPeer)
attr title "packets sent: without retry, vector(packetBytes)"
vector 300 Scenario.node[4].wlan[0].mac.dcf.channelAccess.inProgressFrames queueingTime:vector ETV
attr interpolationmode none
attr source queueingTime(packetDequeued)
attr title "queueing times, vector"
vector 301 Scenario.node[22].wlan[0].mac.dcf.channelAccess.pendingQueue packetPopped:vector(packetBytes) ETV
attr interpolationmode none
attr title "packet popped, vector(packetBytes)"
vector 302 Scenario.node[22].wlan[0].mac.dcf.channelAccess.pendingQueue queueingTime:vector ETV
attr interpolationmode none
attr source queueingTime(packetPopped)
attr title "queueing times, vector"
attr unit s
vector 303 Scenario.node[22].wlan[0].mac.dcf.channelAccess.inProgressFrames queueLength:vector ETV
attr interpolationmode sample-hold
attr source "count(packetEnqueued) - count(packetDequeued)"
attr title "queue length, vector"
vector 304 Scenario.node[22].wlan[0].mac.dcf datarateSelected:vector ETV
attr interpolationmode none
attr title "datarates selected, vector"
vector 305 Scenario.node[22].wlan[0].mac packetSentToLower:vector(packetBytes) ETV
attr interpolationmode none
attr title "packets sent to lower layer, vector(packetBytes)"
vector 306 Scenario.node[22].wlan[0].mac.dcf frameSequenceActive:vector ETV
attr interpolationmode sample-hold
attr source count(frameSequenceStarted)-count(frameSequenceFinished)
attr title "frame sequence active, vector"
vector 307 Scenario.node[22].wlan[0].radio transmissionState:vector ETV
attr interpolationmode sample-hold
attr source transmissionStateChanged
attr title "Radio transmission state, vector"
vector 308 Scenario.node[22].wlan[0].mac.dcf packetSentToPeer:vector(packetBytes) ETV
attr interpolationmode none
attr title "packets sent, vector(packetBytes)"
vector 309 Scenario.node[22].wlan[0].mac.dcf packetSentToPeerMulticast:vector(packetBytes) ETV
attr interpolationmode none
attr source ieee80211Multicast(packetSentToPeer)
attr title "packets sent: multicast, vector(packetBytes)"
vector 310 Scenario.node[22].wlan[0].mac.dcf packetSentToPeerWithoutRetry:vector(packetBytes) ETV
attr interpolationmode none
attr source ieee80211NotRetry(packetSentToPeer)
attr title "packets sent: without retry, vector(packetBytes)"
vector 311 Scenario.node[22].wlan[0].mac.dcf.channelAccess.inProgressFrames queueingTime:vector ETV
attr interpolationmode none
attr source queueingTime(packetDequeued)
attr title "queueing times, vector"
vector 312 Scenario.node[8].wlan[0].mac.dcf packetReceivedFromPeer:vector(packetBytes) ETV
attr interpolationmode none
attr title "packets received, vector(packetBytes)"
vector 313 Scenario.node[8].wlan[0].mac.dcf packetReceivedFromPeerMulticast:vector(packetBytes) ETV
attr interpolationmode none
attr source ieee80211Multicast(packetReceivedFromPeer)
attr title "packets received: multicast, vector(packetBytes)"
vector 314 Scenario.node[8].wlan[0].mac.dcf packetReceivedFromPeerWithoutRetry:vector(packetBytes) ETV
attr interpolationmode none
attr source ieee80211NotRetry(packetReceivedFromPeer)
attr title "packets received: without retry, vector(packetBytes)"
vector 315 Scenario.node[8].wlan[0].mac packetSentToUpper:vector(packetBytes) ETV
attr interpolationmode none
attr title "packets sent to upper layer, vector(packetBytes)"
vector 316 Scenario.node[8].udp packetReceived:vector(packetBytes) ETV
attr interpolationmode none
attr source packetReceived
attr title "packets received, vector(packetBytes)"
vector 317 Scenario.node[8].udp passedUpPk:vector(count) ETV
attr interpolationmode none
attr source packetSentToUpper
attr title "packets passed up, vector(count)"
vector 318 Scenario.node[8].app[0] packetReceived:vector(packetBytes) ETV
attr interpolationmode none
attr source packetReceived
attr title "packets received, vector(packetBytes)"
vector 319 Scenario.node[8].app[0] throughput:vector ETV
attr source throughput(packetReceived)
attr title "throughput, vector"
attr unit bps
vector 320 Scenario.node[8].app[0] rcvdPkLifetime:vector ETV
attr interpolationmode none
attr source dataAge(packetReceived)
attr title "received packet lifetime, vector"
attr unit s
vector 321 Scenario.node[8].app[0] packetSent:vector(packetBytes) ETV
attr interpolationmode none
attr source packetSent
attr title "packets sent, vector(packetBytes)"
vector 322 Scenario.node[8].udp packetSent:vector(packetBytes) ETV
attr interpolationmode none
attr source packetSent
attr title "packets sent, vector(packetBytes)"
vector 323 Scenario.node[8].lo[0].lo rcvdPkFromHl:vector(packetBytes) ETV
attr interpolationmode none
attr source packetReceivedFromUpper
attr title "packets received from higher layer, vector(packetBytes)"
vector 324 Scenario.node[8].lo[0].lo passedUpPk:vector(packetBytes) ETV
attr interpolationmode none
attr source packetSentToUpper
attr title "packets passed to higher layer, vector(packetBytes)"
vector 325 Scenario.node[8].wlan[0].mac packetReceivedFromUpper:vector(packetBytes) ETV
attr interpolationmode none
attr title "packets received from upper layer, vector(packetBytes)"
vector 326 Scenario.node[8].wlan[0].mac.dcf.channelAccess.pendingQueue packetPushed:vector(packetBytes) ETV
attr interpolationmode none
attr title "packet pushed, vector(packetBytes)"
vector 327 Scenario.node[8].wlan[0].mac.dcf.channelAccess.pendingQueue queueLength:vector ETV
attr interpolationmode sample-hold
attr source "count(packetPushed) - count(packetPopped) - count(packetRemoved) - count(packetDropped)"
attr title "queue length, vector"
vector 328 Scenario.node[8].wlan[0].mac.dcf.channelAccess.contention backoffPeriodGenerated:vector ETV
attr interpolationmode none
attr title "backoff periods, vector"
vector 329 Scenario.node[8].wlan[0].mac.dcf.channelAccess.contention backoffActive:vector ETV
attr interpolationmode sample-hold
attr source count(backoffStarted)-count(backoffStopped)
attr title "backoff active, vector"
vector 330 Scenario.node[15].wlan[0].mac.dcf.channelAccess.pendingQueue packetPopped:vector(packetBytes) ETV
attr interpolationmode none
attr title "packet popped, vector(packetBytes)"
vector 331 Scenario.node[15].wlan[0].mac.dcf.channelAccess.pendingQueue queueingTime:vector ETV
attr interpolationmode none
attr source queueingTime(packetPopped)
attr title "queueing times, vector"
attr unit s
vector 332 Scenario.node[15].wlan[0].mac.dcf.channelAccess.inProgressFrames queueLength:vector ETV
attr interpolationmode sample-hold
attr source "count(packetEnqueued) - count(packetDequeued)"
attr title "queue length, vector"
vector 333 Scenario.node[15].wlan[0].mac.dcf datarateSelected:vector ETV
attr interpolationmode none
attr title "datarates selected, vector"
vector 334 Scenario.node[15].wlan[0].mac packetSentToLower:vector(packetBytes) ETV
attr interpolationmode none
attr title "packets sent to lower layer, vector(packetBytes)"
vector 335 Scenario.node[15].wlan[0].mac.dcf frameSequenceActive:vector ETV
attr interpolationmode sample-hold
attr source count(frameSequenceStarted)-count(frameSequenceFinished)
attr title "frame sequence active, vector"
vector 336 Scenario.node[15].wlan[0].radio transmissionState:vector ETV
attr interpolationmode sample-hold
attr source transmissionStateChanged
attr title "Radio transmission state, vector"
vector 337 Scenario.node[8].wlan[0].mac.dcf.channelAccess.pendingQueue packetPopped:vector(packetBytes) ETV
attr interpolationmode none
attr title "packet popped, vector(packetBytes)"
vector 338 Scenario.node[8].wlan[0].mac.dcf.channelAccess.pendingQueue queueingTime:vector ETV
attr interpolationmode none
attr source queueingTime(packetPopped)
attr title "queueing times, vector"
attr unit s
vector 339 Scenario.node[8].wlan[0].mac.dcf.channelAccess.inProgressFrames queueLength:vector ETV
attr interpolationmode sample-hold
attr source "count(packetEnqueued) - count(packetDequeued)"
attr title "queue length, vector"
vector 340 Scenario.node[8].wlan[0].mac.dcf datarateSelected:vector ETV
attr interpolationmode none
attr title "datarates selected, vector"
vector 341 Scenario.node[8].wlan[0].mac packetSentToLower:vector(packetBytes) ETV
attr interpolationmode none
attr title "packets sent to lower layer, vector(packetBytes)"
vector 342 Scenario.node[8].wlan[0].mac.dcf frameSequenceActive:vector ETV
attr interpolationmode sample-hold
attr source count(frameSequenceStarted)-count(frameSequenceFinished)
attr title "frame sequence active, vector"
vector 343 Scenario.node[8].wlan[0].radio transmissionState:vector ETV
attr interpolationmode sample-hold
attr source transmissionStateChanged
attr title "Radio transmission state, vector"
vector 344 Scenario.node[15].wlan[0].mac.dcf packetSentToPeer:vector(packetBytes) ETV
attr interpolationmode none
attr title "packets sent, vector(packetBytes)"
vector 345 Scenario.node[15].wlan[0].mac.dcf packetSentToPeerMulticast:vector(packetBytes) ETV
attr interpolationmode none
attr source ieee80211Multicast(packetSentToPeer)
attr title "packets sent: multicast, vector(packetBytes)"
vector 346 Scenario.node[15].wlan[0].mac.dcf packetSentToPeerWithoutRetry:vector(packetBytes) ETV
attr interpolationmode none
attr source ieee80211NotRetry(packetSentToPeer)
attr title "packets sent: without retry, vector(packetBytes)"
vector 347 Scenario.node[15].wlan[0].mac.dcf.channelAccess.inProgressFrames queueingTime:vector ETV
attr interpolationmode none
attr source queueingTime(packetDequeued)
attr title "queueing times, vector"
vector 348 Scenario.node[25].wlan[0].mac packetDrop:vector(packetBytes) ETV
attr interpolationmode none
attr source packetDropped
attr title "packet drops, vector(packetBytes)"
vector 349 Scenario.node[25].wlan[0].mac packetDropIncorrectlyReceived:vector(packetBytes) ETV
attr interpolationmode none
attr source packetDropReasonIsIncorrectlyReceived(packetDropped)
attr title "packet drops: incorrectly received, vector(packetBytes)"
vector 350 Scenario.node[0].wlan[0].mac packetDrop:vector(packetBytes) ETV
attr interpolationmode none
attr source packetDropped
attr title "packet drops, vector(packetBytes)"
vector 351 Scenario.node[0].wlan[0].mac packetDropIncorrectlyReceived:vector(packetBytes) ETV
attr interpolationmode none
attr source packetDropReasonIsIncorrectlyReceived(packetDropped)
attr title "packet drops: incorrectly received, vector(packetBytes)"
vector 352 Scenario.node[8].wlan[0].mac.dcf packetSentToPeer:vector(packetBytes) ETV
attr interpolationmode none
attr title "packets sent, vector(packetBytes)"
vector 353 Scenario.node[8].wlan[0].mac.dcf packetSentToPeerMulticast:vector(packetBytes) ETV
attr interpolationmode none
attr source ieee80211Multicast(packetSentToPeer)
attr title "packets sent: multicast, vector(packetBytes)"
vector 354 Scenario.node[8].wlan[0].mac.dcf packetSentToPeerWithoutRetry:vector(packetBytes) ETV
attr interpolationmode none
attr source ieee80211NotRetry(packetSentToPeer)
attr title "packets sent: without retry, vector(packetBytes)"
vector 355 Scenario.node[8].wlan[0].mac.dcf.channelAccess.inProgressFrames queueingTime:vector ETV
attr interpolationmode none
attr source queueingTime(packetDequeued)
attr title "queueing times, vector"
vector 356 Scenario.node[6].wlan[0].mac.dcf.channelAccess.pendingQueue packetPopped:vector(packetBytes) ETV
attr interpolationmode none
attr title "packet popped, vector(packetBytes)"
vector 357 Scenario.node[6].wlan[0].mac.dcf.channelAccess.pendingQueue queueingTime:vector ETV
attr interpolationmode none
attr source queueingTime(packetPopped)
attr title "queueing times, vector"
attr unit s
vector 358 Scenario.node[6].wlan[0].mac.dcf.channelAccess.inProgressFrames queueLength:vector ETV
attr interpolationmode sample-hold
attr source "count(packetEnqueued) - count(packetDequeued)"
attr title "queue length, vector"
vector 359 Scenario.node[6].wlan[0].mac.dcf datarateSelected:vector ETV
attr interpolationmode none
attr title "datarates selected, vector"
vector 360 Scenario.node[6].wlan[0].mac packetSentToLower:vector(packetBytes) ETV
attr interpolationmode none
attr title "packets sent to lower layer, vector(packetBytes)"
vector 361 Scenario.node[6].wlan[0].mac.dcf frameSequenceActive:vector ETV
attr interpolationmode sample-hold
attr source count(frameSequenceStarted)-count(frameSequenceFinished)
attr title "frame sequence active, vector"
vector 362 Scenario.node[6].wlan[0].radio transmissionState:vector ETV
attr interpolationmode sample-hold
attr source transmissionStateChanged
attr title "Radio transmission state, vector"
vector 363 Scenario.node[24].wlan[0].mac.dcf.channelAccess.pendingQueue packetPopped:vector(packetBytes) ETV
attr interpolationmode none
attr title "packet popped, vector(packetBytes)"
vector 364 Scenario.node[24].wlan[0].mac.dcf.channelAccess.pendingQueue queueingTime:vector ETV
attr interpolationmode none
attr source queueingTime(packetPopped)
attr title "queueing times, vector"
attr unit s
vector 365 Scenario.node[24].wlan[0].mac.dcf.channelAccess.inProgressFrames queueLength:vector ETV
attr interpolationmode sample-hold
attr source "count(packetEnqueued) - count(packetDequeued)"
attr title "queue length, vector"
vector 366 Scenario.node[24].wlan[0].mac.dcf datarateSelected:vector ETV
attr interpolationmode none
attr title "datarates selected, vector"
vector 367 Scenario.node[24].wlan[0].mac packetSentToLower:vector(packetBytes) ETV
attr interpolationmode none
attr title "packets sent to lower layer, vector(packetBytes)"
vector 368 Scenario.node[24].wlan[0].mac.dcf frameSequenceActive:vector ETV
attr interpolationmode sample-hold
attr source count(frameSequenceStarted)-count(frameSequenceFinished)
attr title "frame sequence active, vector"
vector 369 Scenario.node[24].wlan[0].radio transmissionState:vector ETV
attr interpolationmode sample-hold
attr source transmissionStateChanged
attr title "Radio transmission state, vector"
vector 370 Scenario.node[6].wlan[0].mac.dcf packetSentToPeer:vector(packetBytes) ETV
attr interpolationmode none
attr title "packets sent, vector(packetBytes)"
vector 371 Scenario.node[6].wlan[0].mac.dcf packetSentToPeerMulticast:vector(packetBytes) ETV
attr interpolationmode none
attr source ieee80211Multicast(packetSentToPeer)
attr title "packets sent: multicast, vector(packetBytes)"
vector 372 Scenario.node[6].wlan[0].mac.dcf packetSentToPeerWithoutRetry:vector(packetBytes) ETV
attr interpolationmode none
attr source ieee80211NotRetry(packetSentToPeer)
attr title "packets sent: without retry, vector(packetBytes)"
vector 373 Scenario.node[6].wlan[0].mac.dcf.channelAccess.inProgressFrames queueingTime:vector ETV
attr interpolationmode none
attr source queueingTime(packetDequeued)
attr title "queueing times, vector"
vector 374 Scenario.node[24].wlan[0].mac.dcf packetSentToPeer:vector(packetBytes) ETV
attr interpolationmode none
attr title "packets sent, vector(packetBytes)"
vector 375 Scenario.node[24].wlan[0].mac.dcf packetSentToPeerMulticast:vector(packetBytes) ETV
attr interpolationmode none
attr source ieee80211Multicast(packetSentToPeer)
attr title "packets sent: multicast, vector(packetBytes)"
vector 376 Scenario.node[24].wlan[0].mac.dcf packetSentToPeerWithoutRetry:vector(packetBytes) ETV
attr interpolationmode none
attr source ieee80211NotRetry(packetSentToPeer)
attr title "packets sent: without retry, vector(packetBytes)"
vector 377 Scenario.node[24].wlan[0].mac.dcf.channelAccess.inProgressFrames queueingTime:vector ETV
attr interpolationmode none
attr source queueingTime(packetDequeued)
attr title "queueing times, vector"
vector 378 Scenario.node[4].wlan[0].mac packetDrop:vector(packetBytes) ETV
attr interpolationmode none
attr source packetDropped
attr title "packet drops, vector(packetBytes)"
vector 379 Scenario.node[4].wlan[0].mac packetDropIncorrectlyReceived:vector(packetBytes) ETV
attr interpolationmode none
attr source packetDropReasonIsIncorrectlyReceived(packetDropped)
attr title "packet drops: incorrectly received, vector(packetBytes)"
vector 380 Scenario.node[1].app[0] throughput:vector ETV
attr source throughput(packetReceived)
attr title "throughput, vector"
attr unit bps
vector 381 Scenario.node[2].app[0] throughput:vector ETV
attr source throughput(packetReceived)
attr title "throughput, vector"
attr unit bps
vector 382 Scenario.node[3].app[0] throughput:vector ETV
attr source throughput(packetReceived)
attr title "throughput, vector"
attr unit bps
vector 383 Scenario.node[5].app[0] throughput:vector ETV
attr source throughput(packetReceived)
attr title "throughput, vector"
attr unit bps
vector 384 Scenario.node[7].app[0] throughput:vector ETV
attr source throughput(packetReceived)
attr title "throughput, vector"
attr unit bps
vector 385 Scenario.node[9].app[0] throughput:vector ETV
attr source throughput(packetReceived)
attr title "throughput, vector"
attr unit bps
vector 386 Scenario.node[10].app[0] throughput:vector ETV
attr source throughput(packetReceived)
attr title "throughput, vector"
attr unit bps
vector 387 Scenario.node[11].app[0] throughput:vector ETV
attr source throughput(packetReceived)
attr title "throughput, vector"
attr unit bps
vector 388 Scenario.node[12].app[0] throughput:vector ETV
attr source throughput(packetReceived)
attr title "throughput, vector"
attr unit bps
vector 389 Scenario.node[13].app[0] throughput:vector ETV
attr source throughput(packetReceived)
attr title "throughput, vector"
attr unit bps
vector 390 Scenario.node[14].app[0] throughput:vector ETV
attr source throughput(packetReceived)
attr title "throughput, vector"
attr unit bps
vector 391 Scenario.node[16].app[0] throughput:vector ETV
attr source throughput(packetReceived)
attr title "throughput, vector"
attr unit bps
vector 392 Scenario.node[17].app[0] throughput:vector ETV
attr source throughput(packetReceived)
attr title "throughput, vector"
attr unit bps
vector 393 Scenario.node[18].app[0] throughput:vector ETV
attr source throughput(packetReceived)
attr title "throughput, vector"
attr unit bps
vector 394 Scenario.node[19].app[0] throughput:vector ETV
attr source throughput(packetReceived)
attr title "throughput, vector"
attr unit bps
vector 395 Scenario.node[20].app[0] throughput:vector ETV
attr source throughput(packetReceived)
attr title "throughput, vector"
attr unit bps
vector 396 Scenario.node[21].app[0] throughput:vector ETV
attr source throughput(packetReceived)
attr title "throughput, vector"
attr unit bps
vector 397 Scenario.node[23].app[0] throughput:vector ETV
attr source throughput(packetReceived)
attr title "throughput, vector"
attr unit bps
vector 398 Scenario.node[26].app[0] throughput:vector ETV
attr source throughput(packetReceived)
attr title "throughput, vector"
attr unit bps
vector 399 Scenario.node[27].app[0] throughput:vector ETV
attr source throughput(packetReceived)
attr title "throughput, vector"
attr unit bps
vector 400 Scenario.node[28].app[0] throughput:vector ETV
attr source throughput(packetReceived)
attr title "throughput, vector"
attr unit bps
vector 401 Scenario.node[29].app[0] throughput:vector ETV
attr source throughput(packetReceived)
attr title "throughput, vector"
attr unit bps
vector 402 Scenario.node[30].app[0] throughput:vector ETV
attr source throughput(packetReceived)
attr title "throughput, vector"
attr unit bps
0	76438 107 2 874 0.1 20.001376869975 7 0 3 12 30
1	76545 10 2 2 0.1 0.1 1 3 3 3 9
2	76555 329 2 1042 0.1 20.001665408867 15 0 3 23 51
3	76884 11 2 2 0.1 0.1 1 15 15 15 225
4	76895 33 15 15 1.1 1.1 3 0 2 2 4
5	76928 11 15 15 1.1 1.1 1 3 3 3 9
6	76939 11 15 15 1.1 1.1 1 1 1 1 1
7	76950 12 15 15 1.1 1.1 1 15 15 15 225
8	76962 33 15 15 1.1 1.1 3 0 2 2 4
9	76995 11 15 15 1.1 1.1 1 3 3 3 9
10	77006 12 15 15 1.1 1.1 1 1 1 1 1
11	77018 13 15 15 1.1 1.1 1 15 15 15 225
12	77031 36 15 15 1.1 1.1 3 0 2 2 4
13	77067 12 15 15 1.1 1.1 1 3 3 3 9
14	77079 12 15 15 1.1 1.1 1 1 1 1 1
15	77091 13 15 15 1.1 1.1 1 15 15 15 225
16	77104 86 15 567 1.1 20.000480038781 5 0 3 7 17
17	77190 12 15 15 1.1 1.1 1 3 3 3 9
18	77202 263 15 1046 1.1 20.001666110567 11 0 3 17 37
19	77465 13 15 15 1.1 1.1 1 15 15 15 225
20	77478 36 15 15 1.1 1.1 3 0 2 2 4
21	77514 12 15 15 1.1 1.1 1 3 3 3 9
22	77526 12 15 15 1.1 1.1 1 1 1 1 1
23	77538 13 15 15 1.1 1.1 1 15 15 15 225
24	77551 87 15 1004 1.1 20.001626823091 5 0 3 7 17
25	77638 12 15 15 1.1 1.1 1 3 3 3 9
26	77650 338 15 1004 1.1 20.001626823091 14 0 3 24 56
27	77988 13 15 15 1.1 1.1 1 15 15 15 225
28	78001 36 15 15 1.1 1.1 3 0 2 2 4
29	78037 12 15 15 1.1 1.1 1 3 3 3 9
30	78049 12 15 15 1.1 1.1 1 1 1 1 1
31	78061 13 15 15 1.1 1.1 1 15 15 15 225
32	78074 86 15 808 1.1 20.000994295313 5 0 3 7 17
33	78160 12 15 15 1.1 1.1 1 3 3 3 9
34	78172 213 15 1007 1.1 20.001627491934 9 0 3 14 32
35	78385 13 15 15 1.1 1.1 1 15 15 15 225
36	78398 36 15 15 1.1 1.1 3 0 2 2 4
37	78434 12 15 15 1.1 1.1 1 3 3 3 9
38	78446 12 15 15 1.1 1.1 1 1 1 1 1
39	78458 13 15 15 1.1 1.1 1 15 15 15 225
40	78471 36 15 15 1.1 1.1 3 0 2 2 4
41	78507 12 15 15 1.1 1.1 1 3 3 3 9
42	78519 12 15 15 1.1 1.1 1 1 1 1 1
43	78531 13 15 15 1.1 1.1 1 15 15 15 225
44	78544 36 15 15 1.1 1.1 3 0 2 2 4
45	78580 12 15 15 1.1 1.1 1 3 3 3 9
46	78592 12 15 15 1.1 1.1 1 1 1 1 1
47	78604 13 15 15 1.1 1.1 1 15 15 15 225
48	78617 36 15 15 1.1 1.1 3 0 2 2 4
49	78653 12 15 15 1.1 1.1 1 3 3 3 9
50	78665 12 15 15 1.1 1.1 1 1 1 1 1
51	78677 13 15 15 1.1 1.1 1 15 15 15 225
52	78690 36 15 15 1.1 1.1 3 0 2 2 4
53	78726 12 15 15 1.1 1.1 1 3 3 3 9
54	78738 12 15 15 1.1 1.1 1 1 1 1 1
55	78750 13 15 15 1.1 1.1 1 15 15 15 225
56	78763 36 15 15 1.1 1.1 3 0 2 2 4
57	78799 12 15 15 1.1 1.1 1 3 3 3 9
58	78811 12 15 15 1.1 1.1 1 1 1 1 1
59	78823 13 15 15 1.1 1.1 1 15 15 15 225
60	78836 86 15 771 1.1 20.000968167265 5 0 3 7 17
61	78922 12 15 15 1.1 1.1 1 3 3 3 9
62	78934 337 15 1045 1.1 20.001666051401 14 0 3 24 56
63	79271 13 15 15 1.1 1.1 1 15 15 15 225
64	79284 36 15 15 1.1 1.1 3 0 2 2 4
65	79320 12 15 15 1.1 1.1 1 3 3 3 9
66	79332 12 15 15 1.1 1.1 1 1 1 1 1
67	79344 13 15 15 1.1 1.1 1 15 15 15 225
68	79357 36 15 15 1.1 1.1 3 0 2 2 4
69	79393 12 15 15 1.1 1.1 1 3 3 3 9
70	79405 12 15 15 1.1 1.1 1 1 1 1 1
71	79417 13 15 15 1.1 1.1 1 15 15 15 225
72	79430 36 76 76 2.1 2.1 3 0 2 2 4
73	79466 12 76 76 2.1 2.1 1 3 3 3 9
74	79478 12 76 76 2.1 2.1 1 1 1 1 1
75	79490 13 76 76 2.1 2.1 1 15 15 15 225
76	79503 36 76 76 2.1 2.1 3 0 2 2 4
77	79539 12 76 76 2.1 2.1 1 3 3 3 9
78	79551 12 76 76 2.1 2.1 1 1 1 1 1
79	79563 13 76 76 2.1 2.1 1 15 15 15 225
80	79576 36 76 76 2.1 2.1 3 0 2 2 4
81	79612 12 76 76 2.1 2.1 1 3 3 3 9
82	79624 12 76 76 2.1 2.1 1 1 1 1 1
83	79636 13 76 76 2.1 2.1 1 15 15 15 225
84	79649 36 76 76 2.1 2.1 3 0 2 2 4
85	79685 12 76 76 2.1 2.1 1 3 3 3 9
86	79697 12 76 76 2.1 2.1 1 1 1 1 1
87	79709 13 76 76 2.1 2.1 1 15 15 15 225
88	79722 86 76 633 2.1 20.000731591689 5 0 3 7 17
[...]
122	81597 14 116 116 3.1 3.1 1 1 1 1 1
123	81611 15 116 116 3.1 3.1 1 15 15 15 225
124	81626 30 294 303 20 20 2 100 100 200 20000
125	81656 30 296 304 20 20 2 108 108 216 23328
126	81686 30 298 306 20 20 2 128 128 256 32768
127	81716 30 298 306 20 20 2 128 128 256 32768
128	81746 30 301 309 20 20 2 130 130 260 33800
129	81776 30 301 309 20 20 2 158 158 316 49928
130	81806 52 301 313 20 20 4 0 2 4 6
131	81858 34 301 346 20 20.000152 2 2 11 13 125
132	81892 280 301 839 20 20.001224869975 12 0 1 6 6
133	82172 86 302 656 20 20.000732178671 4 108 108 432 46656
134	82258 78 302 656 20 20.000732178671 4 1 4 10 30
135	82336 86 303 657 20 20.000732178671 4 100 100 400 40000
136	82422 3987 303 1152 0.1 27.1 271 0 32000 32000 1024000000
137	86409 104 303 657 20 20.000732178671 4 0 0.000732178671 0.001094589049 6.6742688834943e-07
138	86513 30 313 313 20 20 2 158 158 316 49928
139	86543 26 313 313 20 20 2 0 0 0 0
140	86569 72 313 873 20 20.001376869975 4 0 2 4 6
141	86641 53 313 840 20 20.001224869975 2 12000000 12000000 24000000 2.88e+14
142	86694 43 313 840 20 20.001224869975 2 158 158 316 49928
143	86737 85 313 873 20 20.001376869975 4 0 1 2 2
144	86822 170 314 874 20 20.001376869975 8 0 2 8 12
145	86992 50 346 873 20.000152 20.001376869975 2 158 158 316 49928
146	87042 50 346 873 20.000152 20.001376869975 2 158 158 316 49928
147	87092 50 346 873 20.000152 20.001376869975 2 158 158 316 49928
148	87142 66 346 873 20.000152 20.001376869975 2 0.000152 0.001376869975 0.001528869975 1.9188749280565e-06
149	87208 140 349 1012 20.000152205189 20.001627577498 5 158 158 790 124820
150	87348 84 349 876 20.000152205189 20.001377075164 3 158 158 474 74892
151	87432 84 349 876 20.000152205189 20.001377075164 3 158 158 474 74892
152	87516 84 349 876 20.000152205189 20.001377075164 3 158 158 474 74892
153	87600 84 349 876 20.000152205189 20.001377075164 3 130 130 390 50700
154	87684 112 352 879 20.000152205189 20.001377075164 4 108 108 432 46656
155	87796 104 352 879 20.000152205189 20.001377075164 4 1 4 10 30
156	87900 112 353 880 20.000152205189 20.001377075164 4 100 100 400 40000
157	88012 3987 353 1152 0.1 27.1 271 0 32000 32000 1024000000
158	91999 156 353 880 20.000152205189 20.001377075164 4 0.000152205189 0.001377075164 0.002413463731 2.4784609155944e-06
159	92155 28 353 353 20.000152205189 20.000152205189 1 100 100 100 10000
160	92183 28 354 354 20.000152205189 20.000152205189 1 108 108 108 11664
161	92211 28 356 356 20.000152205189 20.000152205189 1 128 128 128 16384
162	92239 28 356 356 20.000152205189 20.000152205189 1 128 128 128 16384
163	92267 28 359 359 20.000152205189 20.000152205189 1 130 130 130 16900
164	92295 28 359 359 20.000152205189 20.000152205189 1 158 158 158 24964
165	92323 52 359 457 20.000152205189 20.000210205189 2 0 1 1 1
166	92375 26 359 359 20.000152205189 20.000152205189 1 0 0 0 0
167	92401 52 359 456 20.000152205189 20.000210205189 2 0 1 1 1
168	92453 140 363 882 20.000152269446 20.001377139421 5 158 158 790 124820
169	92593 84 363 882 20.000152269446 20.001377139421 3 158 158 474 74892
170	92677 84 363 882 20.000152269446 20.001377139421 3 158 158 474 74892
171	92761 84 363 882 20.000152269446 20.001377139421 3 158 158 474 74892
172	92845 84 363 882 20.000152269446 20.001377139421 3 130 130 390 50700
173	92929 112 366 885 20.000152269446 20.001377139421 4 108 108 432 46656
174	93041 104 366 885 20.000152269446 20.001377139421 4 1 4 10 30
175	93145 112 367 886 20.000152269446 20.001377139421 4 100 100 400 40000
176	93257 3987 367 1152 0.1 27.1 271 0 32000 32000 1024000000
177	97244 156 367 886 20.000152269446 20.001377139421 4 0.000152269446 0.001377139421 0.002414125225 2.4793634321408e-06
178	97400 28 367 367 20.000152269446 20.000152269446 1 100 100 100 10000
179	97428 28 368 368 20.000152269446 20.000152269446 1 108 108 108 11664
180	97456 28 370 370 20.000152269446 20.000152269446 1 128 128 128 16384
181	97484 28 370 370 20.000152269446 20.000152269446 1 128 128 128 16384
182	97512 28 373 373 20.000152269446 20.000152269446 1 130 130 130 16900
183	97540 28 373 373 20.000152269446 20.000152269446 1 158 158 158 24964
184	97568 52 373 970 20.000152269446 20.001513139421 2 0 1 1 1
185	97620 27 373 373 20.000152269446 20.000152269446 1 14 14 14 196
186	97647 312 373 969 20.000152269446 20.001513139421 12 0 1 6 6
187	97959 141 377 1006 20.000152586982 20.001627191136 5 158 158 790 124820
188	98100 56 377 888 20.000152586982 20.001377456957 2 158 158 316 49928
189	98156 56 377 888 20.000152586982 20.001377456957 2 158 158 316 49928
190	98212 56 377 888 20.000152586982 20.001377456957 2 158 158 316 49928
191	98268 56 377 888 20.000152586982 20.001377456957 2 130 130 260 33800
192	98324 84 380 891 20.000152586982 20.001377456957 3 108 108 324 34992
193	98408 78 380 891 20.000152586982 20.001377456957 3 1 3 6 14
194	98486 84 381 892 20.000152586982 20.001377456957 3 100 100 300 30000
195	98570 3987 381 1152 0.1 27.1 271 0 24000 24000 576000000
196	102557 117 381 892 20.000152586982 20.001377456957 3 0.000152586982 0.001377456957 0.001682630921 1.9439532425394e-06
197	102674 28 381 381 20.000152586982 20.000152586982 1 100 100 100 10000
198	102702 28 382 382 20.000152586982 20.000152586982 1 108 108 108 11664
199	102730 28 384 384 20.000152586982 20.000152586982 1 128 128 128 16384
200	102758 28 384 384 20.000152586982 20.000152586982 1 128 128 128 16384
201	102786 28 387 387 20.000152586982 20.000152586982 1 130 130 130 16900
202	102814 28 387 387 20.000152586982 20.000152586982 1 158 158 158 24964
203	102842 52 387 599 20.000152586982 20.000579591689 2 0 1 1 1
204	102894 26 387 387 20.000152586982 20.000152586982 1 3 3 3 9
205	102920 156 387 598 20.000152586982 20.000579591689 6 0 1 3 3
206	103076 140 391 1010 20.00015270271 20.001627549055 5 158 158 790 124820
207	103216 83 391 894 20.00015270271 20.001377572685 3 158 158 474 74892
208	103299 83 391 894 20.00015270271 20.001377572685 3 158 158 474 74892
209	103382 83 391 894 20.00015270271 20.001377572685 3 158 158 474 74892
210	103465 83 391 894 20.00015270271 20.001377572685 3 130 130 390 50700
211	103548 110 394 897 20.00015270271 20.001377572685 4 108 108 432 46656
212	103658 102 394 897 20.00015270271 20.001377572685 4 1 4 10 30
213	103760 110 395 898 20.00015270271 20.001377572685 4 100 100 400 40000
214	103870 3987 395 1152 0.1 27.1 271 0 32000 32000 1024000000
215	107857 152 395 898 20.00015270271 20.001377572685 4 0.00015270271 0.001377572685 0.00241514537 2.4804116416784e-06
216	108009 27 395 395 20.00015270271 20.00015270271 1 100 100 100 10000
217	108036 27 396 396 20.00015270271 20.00015270271 1 108 108 108 11664
218	108063 27 398 398 20.00015270271 20.00015270271 1 128 128 128 16384
219	108090 27 398 398 20.00015270271 20.00015270271 1 128 128 128 16384
220	108117 27 401 401 20.00015270271 20.00015270271 1 130 130 130 16900
221	108144 27 401 401 20.00015270271 20.00015270271 1 158 158 158 24964
222	108171 51 401 703 20.00015270271 20.000816167265 2 0 1 1 1
223	108222 25 401 401 20.00015270271 20.00015270271 1 5 5 5 25
224	108247 207 401 702 20.00015270271 20.000816167265 8 0 1 4 4
225	108454 140 405 900 20.000152953116 20.001377823091 5 158 158 790 124820
226	108594 84 405 900 20.000152953116 20.001377823091 3 158 158 474 74892
227	108678 84 405 900 20.000152953116 20.001377823091 3 158 158 474 74892
228	108762 84 405 900 20.000152953116 20.001377823091 3 158 158 474 74892
229	108846 84 405 900 20.000152953116 20.001377823091 3 130 130 390 50700
230	108930 112 408 903 20.000152953116 20.001377823091 4 108 108 432 46656
231	109042 104 408 903 20.000152953116 20.001377823091 4 1 4 10 30
232	109146 112 409 904 20.000152953116 20.001377823091 4 100 100 400 40000
233	109258 3987 409 1152 0.1 27.1 271 0 32000 32000 1024000000
234	113245 156 409 904 20.000152953116 20.001377823091 4 0.000152953116 0.001377823091 0.002415689057 2.4809508336784e-06
235	113401 28 409 409 20.000152953116 20.000152953116 1 100 100 100 10000
236	113429 28 410 410 20.000152953116 20.000152953116 1 108 108 108 11664
237	113457 28 412 412 20.000152953116 20.000152953116 1 128 128 128 16384
238	113485 28 412 412 20.000152953116 20.000152953116 1 128 128 128 16384
239	113513 28 415 415 20.000152953116 20.000152953116 1 130 130 130 16900
240	113541 28 415 415 20.000152953116 20.000152953116 1 158 158 158 24964
241	113569 52 415 936 20.000152953116 20.001474823091 2 0 1 1 1
242	113621 27 415 415 20.000152953116 20.000152953116 1 12 12 12 144
243	113648 312 415 935 20.000152953116 20.001474823091 12 0 1 6 6
244	113960 85 419 1047 20.000153038781 20.001666110567 3 158 158 474 74892
245	114045 56 419 906 20.000153038781 20.001377908756 2 158 158 316 49928
246	114101 56 419 906 20.000153038781 20.001377908756 2 158 158 316 49928
247	114157 56 419 906 20.000153038781 20.001377908756 2 158 158 316 49928
248	114213 56 419 906 20.000153038781 20.001377908756 2 130 130 260 33800
249	114269 84 422 909 20.000153038781 20.001377908756 3 108 108 324 34992
250	114353 78 422 909 20.000153038781 20.001377908756 3 1 3 6 14
251	114431 84 423 910 20.000153038781 20.001377908756 3 100 100 300 30000
252	114515 3987 423 1152 0.1 27.1 271 0 24000 24000 576000000
253	118502 117 423 910 20.000153038781 20.001377908756 3 0.000153038781 0.001377908756 0.001683986318 1.9454742768414e-06
254	118619 28 423 423 20.000153038781 20.000153038781 1 100 100 100 10000
255	118647 28 424 424 20.000153038781 20.000153038781 1 108 108 108 11664
256	118675 28 426 426 20.000153038781 20.000153038781 1 128 128 128 16384
257	118703 28 426 426 20.000153038781 20.000153038781 1 128 128 128 16384
258	118731 28 429 429 20.000153038781 20.000153038781 1 130 130 130 16900
259	118759 28 429 429 20.000153038781 20.000153038781 1 158 158 158 24964
260	118787 52 429 491 20.000153038781 20.000328038781 2 0 1 1 1
261	118839 26 429 429 20.000153038781 20.000153038781 1 9 9 9 81
262	118865 52 429 490 20.000153038781 20.000328038781 2 0 1 1 1
263	118917 28 457 457 20.000210205189 20.000210205189 1 158 158 158 24964
264	118945 32 457 457 20.000210205189 20.000210205189 1 5.8e-05 5.8e-05 5.8e-05 3.364e-09
265	118977 52 457 524 20.000210205189 20.000362205189 2 0 1 1 1
266	119029 33 457 457 20.000210205189 20.000210205189 1 12000000 12000000 12000000 1.44e+14
267	119062 28 457 457 20.000210205189 20.000210205189 1 158 158 158 24964
268	119090 52 457 524 20.000210205189 20.000362205189 2 0 1 1 1
269	119142 104 458 525 20.000210205189 20.000362205189 4 0 2 4 6
270	119246 28 491 491 20.000328038781 20.000328038781 1 158 158 158 24964
271	119274 33 491 491 20.000328038781 20.000328038781 1 0.000175 0.000175 0.000175 3.0625e-08
272	119307 52 491 566 20.000328038781 20.000480038781 2 0 1 1 1
273	119359 33 491 491 20.000328038781 20.000328038781 1 12000000 12000000 12000000 1.44e+14
274	119392 28 491 491 20.000328038781 20.000328038781 1 158 158 158 24964
275	119420 52 491 566 20.000328038781 20.000480038781 2 0 1 1 1
276	119472 104 492 567 20.000328038781 20.000480038781 4 0 2 4 6
277	119576 28 524 524 20.000362205189 20.000362205189 1 158 158 158 24964
278	119604 28 524 524 20.000362205189 20.000362205189 1 158 158 158 24964
279	119632 28 524 524 20.000362205189 20.000362205189 1 158 158 158 24964
280	119660 33 524 524 20.000362205189 20.000362205189 1 0.000152 0.000152 0.000152 2.3104e-08
281	119693 113 527 1014 20.000362410378 20.001627776207 4 158 158 632 99856
282	119806 56 527 653 20.000362410378 20.000732178671 2 158 158 316 49928
283	119862 56 527 653 20.000362410378 20.000732178671 2 158 158 316 49928
284	119918 56 527 653 20.000362410378 20.000732178671 2 158 158 316 49928
285	119974 56 527 653 20.000362410378 20.000732178671 2 130 130 260 33800
286	120030 85 533 1006 20.000362591689 20.001627191136 3 158 158 474 74892
287	120115 85 533 1006 20.000362591689 20.001627191136 3 158 158 474 74892
288	120200 56 535 781 20.000362675009 20.000969079245 2 158 158 316 49928
289	120256 56 535 781 20.000362675009 20.000969079245 2 158 158 316 49928
290	120312 57 537 1010 20.000362838104 20.001627549055 2 158 158 316 49928
291	120369 57 537 1010 20.000362838104 20.001627549055 2 158 158 316 49928
292	120426 56 539 779 20.000362959596 20.000968893229 2 158 158 316 49928
293	120482 56 539 779 20.000362959596 20.000968893229 2 158 158 316 49928
294	120538 85 541 1008 20.000363130476 20.001627491934 3 158 158 474 74892
295	120623 57 541 1008 20.000363130476 20.001627491934 2 158 158 316 49928
296	120680 57 541 1008 20.000363130476 20.001627491934 2 158 158 316 49928
297	120737 28 566 566 20.000480038781 20.000480038781 1 158 158 158 24964
298	120765 28 566 566 20.000480038781 20.000480038781 1 158 158 158 24964
299	120793 28 566 566 20.000480038781 20.000480038781 1 158 158 158 24964
300	120821 33 566 566 20.000480038781 20.000480038781 1 0.000152 0.000152 0.000152 2.3104e-08
301	120854 28 599 599 20.000579591689 20.000579591689 1 158 158 158 24964
302	120882 39 599 599 20.000579591689 20.000579591689 1 0.000427004707 0.000427004707 0.000427004707 1.8233301980016e-07
303	120921 52 599 632 20.000579591689 20.000731591689 2 0 1 1 1
304	120973 33 599 599 20.000579591689 20.000579591689 1 12000000 12000000 12000000 1.44e+14
305	121006 28 599 599 20.000579591689 20.000579591689 1 158 158 158 24964
306	121034 52 599 632 20.000579591689 20.000731591689 2 0 1 1 1
307	121086 104 600 633 20.000579591689 20.000731591689 4 0 2 4 6
308	121190 28 632 632 20.000731591689 20.000731591689 1 158 158 158 24964
309	121218 28 632 632 20.000731591689 20.000731591689 1 158 158 158 24964
310	121246 28 632 632 20.000731591689 20.000731591689 1 158 158 158 24964
311	121274 33 632 632 20.000731591689 20.000731591689 1 0.000152 0.000152 0.000152 2.3104e-08
312	121307 28 659 659 20.000732295313 20.000732295313 1 158 158 158 24964
313	121335 28 659 659 20.000732295313 20.000732295313 1 158 158 158 24964
314	121363 28 659 659 20.000732295313 20.000732295313 1 158 158 158 24964
315	121391 28 659 659 20.000732295313 20.000732295313 1 130 130 130 16900
316	121419 56 662 670 20.000732295313 20.000732295313 2 108 108 216 23328
317	121475 52 662 670 20.000732295313 20.000732295313 2 1 2 3 5
318	121527 56 663 671 20.000732295313 20.000732295313 2 100 100 200 20000
319	121583 3987 663 1152 0.1 27.1 271 0 16000 16000 256000000
320	125570 78 663 671 20.000732295313 20.000732295313 2 0.000732295313 0.000732295313 0.001464590626 1.0725128508835e-06
321	125648 28 663 663 20.000732295313 20.000732295313 1 100 100 100 10000
322	125676 28 664 664 20.000732295313 20.000732295313 1 108 108 108 11664
323	125704 28 666 666 20.000732295313 20.000732295313 1 128 128 128 16384
324	125732 28 666 666 20.000732295313 20.000732295313 1 128 128 128 16384
325	125760 28 669 669 20.000732295313 20.000732295313 1 130 130 130 16900
326	125788 28 669 669 20.000732295313 20.000732295313 1 158 158 158 24964
327	125816 52 669 737 20.000732295313 20.000842295313 2 0 1 1 1
328	125868 26 669 669 20.000732295313 20.000732295313 1 4 4 4 16
329	125894 52 669 736 20.000732295313 20.000842295313 2 0 1 1 1
330	125946 28 703 703 20.000816167265 20.000816167265 1 158 158 158 24964
331	125974 39 703 703 20.000816167265 20.000816167265 1 0.000663464555 0.000663464555 0.000663464555 4.4018521574135e-07
332	126013 52 703 770 20.000816167265 20.000968167265 2 0 1 1 1
333	126065 33 703 703 20.000816167265 20.000816167265 1 12000000 12000000 12000000 1.44e+14
334	126098 28 703 703 20.000816167265 20.000816167265 1 158 158 158 24964
335	126126 52 703 770 20.000816167265 20.000968167265 2 0 1 1 1
336	126178 104 704 771 20.000816167265 20.000968167265 4 0 2 4 6
337	126282 28 737 737 20.000842295313 20.000842295313 1 158 158 158 24964
338	126310 32 737 737 20.000842295313 20.000842295313 1 0.00011 0.00011 0.00011 1.21e-08
339	126342 52 737 807 20.000842295313 20.000994295313 2 0 1 1 1
340	126394 33 737 737 20.000842295313 20.000842295313 1 12000000 12000000 12000000 1.44e+14
341	126427 28 737 737 20.000842295313 20.000842295313 1 158 158 158 24964
342	126455 52 737 807 20.000842295313 20.000994295313 2 0 1 1 1
343	126507 104 738 808 20.000842295313 20.000994295313 4 0 2 4 6
344	126611 28 770 770 20.000968167265 20.000968167265 1 158 158 158 24964
345	126639 28 770 770 20.000968167265 20.000968167265 1 158 158 158 24964
346	126667 28 770 770 20.000968167265 20.000968167265 1 158 158 158 24964
347	126695 33 770 770 20.000968167265 20.000968167265 1 0.000152 0.000152 0.000152 2.3104e-08
348	126728 56 775 1012 20.00096880018 20.001627577498 2 158 158 316 49928
349	126784 56 775 1012 20.00096880018 20.001627577498 2 158 158 316 49928
350	126840 57 777 1014 20.000968869975 20.001627776207 2 158 158 316 49928
351	126897 57 777 1014 20.000968869975 20.001627776207 2 158 158 316 49928
352	126954 28 807 807 20.000994295313 20.000994295313 1 158 158 158 24964
353	126982 28 807 807 20.000994295313 20.000994295313 1 158 158 158 24964
354	127010 28 807 807 20.000994295313 20.000994295313 1 158 158 158 24964
355	127038 33 807 807 20.000994295313 20.000994295313 1 0.000152 0.000152 0.000152 2.3104e-08
356	127071 28 936 936 20.001474823091 20.001474823091 1 158 158 158 24964
357	127099 39 936 936 20.001474823091 20.001474823091 1 0.001321869975 0.001321869975 0.001321869975 1.7473402308065e-06
358	127138 53 936 1003 20.001474823091 20.001626823091 2 0 1 1 1
359	127191 33 936 936 20.001474823091 20.001474823091 1 12000000 12000000 12000000 1.44e+14
360	127224 28 936 936 20.001474823091 20.001474823091 1 158 158 158 24964
361	127252 53 936 1003 20.001474823091 20.001626823091 2 0 1 1 1
362	127305 106 937 1004 20.001474823091 20.001626823091 4 0 2 4 6
363	127411 28 970 970 20.001513139421 20.001513139421 1 158 158 158 24964
364	127439 39 970 970 20.001513139421 20.001513139421 1 0.001360869975 0.001360869975 0.001360869975 1.8519670888565e-06
365	127478 53 970 1040 20.001513139421 20.001665139421 2 0 1 1 1
366	127531 33 970 970 20.001513139421 20.001513139421 1 12000000 12000000 12000000 1.44e+14
367	127564 28 970 970 20.001513139421 20.001513139421 1 158 158 158 24964
368	127592 53 970 1040 20.001513139421 20.001665139421 2 0 1 1 1
369	127645 106 971 1041 20.001513139421 20.001665139421 4 0 2 4 6
370	127751 29 1003 1003 20.001626823091 20.001626823091 1 158 158 158 24964
371	127780 29 1003 1003 20.001626823091 20.001626823091 1 158 158 158 24964
372	127809 29 1003 1003 20.001626823091 20.001626823091 1 158 158 158 24964
373	127838 34 1003 1003 20.001626823091 20.001626823091 1 0.000152 0.000152 0.000152 2.3104e-08
374	127872 29 1040 1040 20.001665139421 20.001665139421 1 158 158 158 24964
375	127901 29 1040 1040 20.001665139421 20.001665139421 1 158 158 158 24964
376	127930 29 1040 1040 20.001665139421 20.001665139421 1 158 158 158 24964
377	127959 34 1040 1040 20.001665139421 20.001665139421 1 0.000152 0.000152 0.000152 2.3104e-08
378	127993 29 1047 1047 20.001666110567 20.001666110567 1 158 158 158 24964
379	128022 29 1047 1047 20.001666110567 20.001666110567 1 158 158 158 24964
380	128051 4183 1152 1152 0.1 27.1 271 0 0 0 0
381	132234 4183 1152 1152 0.1 27.1 271 0 0 0 0
382	136417 4183 1152 1152 0.1 27.1 271 0 0 0 0
383	140600 4183 1152 1152 0.1 27.1 271 0 0 0 0
384	144783 4183 1152 1152 0.1 27.1 271 0 0 0 0
385	148966 4183 1152 1152 0.1 27.1 271 0 0 0 0
386	153149 4183 1152 1152 0.1 27.1 271 0 0 0 0
387	157332 4183 1152 1152 0.1 27.1 271 0 0 0 0
388	161515 4183 1152 1152 0.1 27.1 271 0 0 0 0
389	165698 4183 1152 1152 0.1 27.1 271 0 0 0 0
390	169881 4183 1152 1152 0.1 27.1 271 0 0 0 0
391	174064 4183 1152 1152 0.1 27.1 271 0 0 0 0
392	178247 4183 1152 1152 0.1 27.1 271 0 0 0 0
393	182430 4183 1152 1152 0.1 27.1 271 0 0 0 0
394	186613 4183 1152 1152 0.1 27.1 271 0 0 0 0
395	190796 4183 1152 1152 0.1 27.1 271 0 0 0 0
396	194979 4183 1152 1152 0.1 27.1 271 0 0 0 0
397	199162 4183 1152 1152 0.1 27.1 271 0 0 0 0
398	203345 4183 1152 1152 0.1 27.1 271 0 0 0 0
399	207528 4183 1152 1152 0.1 27.1 271 0 0 0 0
400	211711 4183 1152 1152 0.1 27.1 271 0 0 0 0
401	215894 4183 1152 1152 0.1 27.1 271 0 0 0 0
402	220077 4183 1152 1152 0.1 27.1 271 0 0 0 0

